// Generated for: spectre
// Generated on: Jul  2 19:44:24 2026
// Design library name: 0_BARAM
// Design cell name: 0_TOP_RC
// Design view name: schematic
simulator lang=spectre
global 0 VSS!
include "/SF28_dk/SF28_LNR/analog/pdk_analog/LNR28FDS_Spectre_S00-V1.3.5.1/Spectre/LNR28FDS_Spectre_STD.lib" section=tt

// Library name: 0_BARAM
// Cell name: RCDIFF_COMP
// View name: schematic
subckt RCDIFF_COMP ON OUT VDD VINN VINP VREFN VSS
    P3 (OUT p1 VDD VDD) lvtpfet w=320n l=80n as=24.32f ad=24.32f nf=1 \
        sa=(76n)+(0) sb=(76n)+(0) sd=96n ptwell=0 par=1 p_vta=0 sca=-1 \
        scb=-1 scc=-1 u0_mult=1 pre_layout_local=-1 p_la=0 lpccnr=0 \
        covpccnr=0 ngcon=1 wrxcnr=0 nsig_delvto_uo1=0 nsig_delvto_uo2=0 \
        swshe=0 swrg=1 swrsub=-1 swacc=-1 mismatch=1 numcos=-1 pocos=-1 \
        numcod=-1 pocod=-1 m=1 sc=-1 d0=-1 d1=-1 nsig_dnoise=0 rthu=-1 \
        cthu=-1 plorient=1 lle_pcrxn=0 lle_pcrxs=0
    P2 (p1 p1 VDD VDD) lvtpfet w=320n l=80n as=24.32f ad=24.32f nf=(1)*(1) \
        sa=(76n)+(0) sb=(76n)+(0) sd=96n ptwell=0 par=1 p_vta=0 sca=-1 \
        scb=-1 scc=-1 u0_mult=1 pre_layout_local=-1 p_la=0 lpccnr=0 \
        covpccnr=0 ngcon=1 wrxcnr=0 nsig_delvto_uo1=0 nsig_delvto_uo2=0 \
        swshe=0 swrg=1 swrsub=-1 swacc=-1 mismatch=1 numcos=-1 pocos=-1 \
        numcod=-1 pocod=-1 m=1 sc=-1 d0=-1 d1=-1 nsig_dnoise=0 rthu=-1 \
        cthu=-1 plorient=1 lle_pcrxn=0 lle_pcrxs=0
    P1 (n1 p2 VDD VDD) lvtpfet w=320n l=80n as=24.32f ad=24.32f nf=(1)*(1) \
        sa=(76n)+(0) sb=(76n)+(0) sd=96n ptwell=0 par=1 p_vta=0 sca=-1 \
        scb=-1 scc=-1 u0_mult=1 pre_layout_local=-1 p_la=0 lpccnr=0 \
        covpccnr=0 ngcon=1 wrxcnr=0 nsig_delvto_uo1=0 nsig_delvto_uo2=0 \
        swshe=0 swrg=1 swrsub=-1 swacc=-1 mismatch=1 numcos=-1 pocos=-1 \
        numcod=-1 pocod=-1 m=1 sc=-1 d0=-1 d1=-1 nsig_dnoise=0 rthu=-1 \
        cthu=-1 plorient=1 lle_pcrxn=0 lle_pcrxs=0
    P0 (p2 p2 VDD VDD) lvtpfet w=320n l=80n as=24.32f ad=24.32f nf=(1)*(1) \
        sa=(76n)+(0) sb=(76n)+(0) sd=96n ptwell=0 par=1 p_vta=0 sca=-1 \
        scb=-1 scc=-1 u0_mult=1 pre_layout_local=-1 p_la=0 lpccnr=0 \
        covpccnr=0 ngcon=1 wrxcnr=0 nsig_delvto_uo1=0 nsig_delvto_uo2=0 \
        swshe=0 swrg=1 swrsub=-1 swacc=-1 mismatch=1 numcos=-1 pocos=-1 \
        numcod=-1 pocod=-1 m=1 sc=-1 d0=-1 d1=-1 nsig_dnoise=0 rthu=-1 \
        cthu=-1 plorient=1 lle_pcrxn=0 lle_pcrxs=0
    N7 (OUT n1 VSS VSS) lvtnfet w=160n l=50n as=12.16f ad=12.16f \
        nf=(1)*(1) sa=(76n)+(0) sb=(76n)+(0) sd=96n ptwell=0 par=1 p_vta=0 \
        sca=-1 scb=-1 scc=-1 u0_mult=1 pre_layout_local=-1 p_la=0 lpccnr=0 \
        covpccnr=0 ngcon=1 wrxcnr=0 nsig_delvto_uo1=0 nsig_delvto_uo2=0 \
        swshe=0 swrg=1 swrsub=-1 swacc=-1 mismatch=1 numcos=-1 pocos=-1 \
        numcod=-1 pocod=-1 m=1 sc=-1 d0=-1 d1=-1 nsig_dnoise=0 rthu=-1 \
        cthu=-1 plorient=1 lle_pcrxn=0 lle_pcrxs=0
    N6 (n1 n1 VSS VSS) lvtnfet w=160n l=50n as=12.16f ad=12.16f nf=(1)*(1) \
        sa=(76n)+(0) sb=(76n)+(0) sd=96n ptwell=0 par=1 p_vta=0 sca=-1 \
        scb=-1 scc=-1 u0_mult=1 pre_layout_local=-1 p_la=0 lpccnr=0 \
        covpccnr=0 ngcon=1 wrxcnr=0 nsig_delvto_uo1=0 nsig_delvto_uo2=0 \
        swshe=0 swrg=1 swrsub=-1 swacc=-1 mismatch=1 numcos=-1 pocos=-1 \
        numcod=-1 pocod=-1 m=1 sc=-1 d0=-1 d1=-1 nsig_dnoise=0 rthu=-1 \
        cthu=-1 plorient=1 lle_pcrxn=0 lle_pcrxs=0
    N8 (VSS VREFN VSS VSS) lvtnfet w=320n l=80n as=24.32f ad=24.32f \
        nf=(1)*(1) sa=(76n)+(0) sb=(76n)+(0) sd=96n ptwell=0 par=1 p_vta=0 \
        sca=-1 scb=-1 scc=-1 u0_mult=1 pre_layout_local=-1 p_la=0 lpccnr=0 \
        covpccnr=0 ngcon=1 wrxcnr=0 nsig_delvto_uo1=0 nsig_delvto_uo2=0 \
        swshe=0 swrg=1 swrsub=-1 swacc=-1 mismatch=1 numcos=-1 pocos=-1 \
        numcod=-1 pocod=-1 m=1 sc=-1 d0=-1 d1=-1 nsig_dnoise=0 rthu=-1 \
        cthu=-1 plorient=1 lle_pcrxn=0 lle_pcrxs=0
    N9 (VSS VREFN VSS VSS) lvtnfet w=320n l=80n as=24.32f ad=24.32f \
        nf=(1)*(1) sa=(76n)+(0) sb=(76n)+(0) sd=96n ptwell=0 par=1 p_vta=0 \
        sca=-1 scb=-1 scc=-1 u0_mult=1 pre_layout_local=-1 p_la=0 lpccnr=0 \
        covpccnr=0 ngcon=1 wrxcnr=0 nsig_delvto_uo1=0 nsig_delvto_uo2=0 \
        swshe=0 swrg=1 swrsub=-1 swacc=-1 mismatch=1 numcos=-1 pocos=-1 \
        numcod=-1 pocod=-1 m=1 sc=-1 d0=-1 d1=-1 nsig_dnoise=0 rthu=-1 \
        cthu=-1 plorient=1 lle_pcrxn=0 lle_pcrxs=0
    N1 (net10 VREFN VSS VSS) lvtnfet w=320n l=80n as=24.32f ad=24.32f \
        nf=(1)*(1) sa=(76n)+(0) sb=(76n)+(0) sd=96n ptwell=0 par=1 p_vta=0 \
        sca=-1 scb=-1 scc=-1 u0_mult=1 pre_layout_local=-1 p_la=0 lpccnr=0 \
        covpccnr=0 ngcon=1 wrxcnr=0 nsig_delvto_uo1=0 nsig_delvto_uo2=0 \
        swshe=0 swrg=1 swrsub=-1 swacc=-1 mismatch=1 numcos=-1 pocos=-1 \
        numcod=-1 pocod=-1 m=1 sc=-1 d0=-1 d1=-1 nsig_dnoise=0 rthu=-1 \
        cthu=-1 plorient=1 lle_pcrxn=0 lle_pcrxs=0
    N2 (p2 VINN Vx VSS) lvtnfet w=720n l=30.00n as=54.72f ad=54.72f \
        nf=(1)*(1) sa=(76n)+(0) sb=(76n)+(0) sd=96n ptwell=0 par=1 p_vta=0 \
        sca=-1 scb=-1 scc=-1 u0_mult=1 pre_layout_local=-1 p_la=0 lpccnr=0 \
        covpccnr=0 ngcon=1 wrxcnr=0 nsig_delvto_uo1=0 nsig_delvto_uo2=0 \
        swshe=0 swrg=1 swrsub=-1 swacc=-1 mismatch=1 numcos=-1 pocos=-1 \
        numcod=-1 pocod=-1 m=1 sc=-1 d0=-1 d1=-1 nsig_dnoise=0 rthu=-1 \
        cthu=-1 plorient=1 lle_pcrxn=0 lle_pcrxs=0
    N3 (p1 VINP Vx VSS) lvtnfet w=720n l=30.00n as=54.72f ad=54.72f \
        nf=(1)*(1) sa=(76n)+(0) sb=(76n)+(0) sd=96n ptwell=0 par=1 p_vta=0 \
        sca=-1 scb=-1 scc=-1 u0_mult=1 pre_layout_local=-1 p_la=0 lpccnr=0 \
        covpccnr=0 ngcon=1 wrxcnr=0 nsig_delvto_uo1=0 nsig_delvto_uo2=0 \
        swshe=0 swrg=1 swrsub=-1 swacc=-1 mismatch=1 numcos=-1 pocos=-1 \
        numcod=-1 pocod=-1 m=1 sc=-1 d0=-1 d1=-1 nsig_dnoise=0 rthu=-1 \
        cthu=-1 plorient=1 lle_pcrxn=0 lle_pcrxs=0
    N0 (Vx ON net10 VSS) lvtnfet w=80n l=30.00n as=6.08f ad=6.08f \
        nf=(1)*(1) sa=(76n)+(0) sb=(76n)+(0) sd=96n ptwell=0 par=1 p_vta=0 \
        sca=-1 scb=-1 scc=-1 u0_mult=1 pre_layout_local=-1 p_la=0 lpccnr=0 \
        covpccnr=0 ngcon=1 wrxcnr=0 nsig_delvto_uo1=0 nsig_delvto_uo2=0 \
        swshe=0 swrg=1 swrsub=-1 swacc=-1 mismatch=1 numcos=-1 pocos=-1 \
        numcod=-1 pocod=-1 m=1 sc=-1 d0=-1 d1=-1 nsig_dnoise=0 rthu=-1 \
        cthu=-1 plorient=1 lle_pcrxn=0 lle_pcrxs=0
ends RCDIFF_COMP
// End of subcircuit definition.

// Library name: 0_BARAM
// Cell name: NAND2
// View name: schematic
subckt NAND2 net14 net10 net13 net3 net8 net15 net16
    M_I0_MXPA2 (net13 net10 net15 net16) pfet w=1.58E-07 l=3E-08 \
        nf=(1)*(1) sa=(0.076u)+(0u) sb=(0.076u)+(0u) sd=96n ptwell=0 par=1 \
        p_vta=0 sca=-1 scb=-1 scc=-1 u0_mult=1 pre_layout_local=-1 p_la=0 \
        lpccnr=0 covpccnr=0 ngcon=1 wrxcnr=0 nsig_delvto_uo1=0 \
        nsig_delvto_uo2=0 swshe=0 swrg=1 swrsub=-1 swacc=-1 mismatch=1 \
        numcos=-1 pocos=-1 numcod=-1 pocod=-1 m=1 sc=-1 d0=-1 d1=-1 \
        nsig_dnoise=0 rthu=-1 cthu=-1 plorient=1 lle_pcrxn=0 lle_pcrxs=0
    M_I0_MXPA1 (net13 net14 net15 net16) pfet w=1.58E-07 l=3E-08 \
        nf=(1)*(1) sa=(0.076u)+(0u) sb=(0.076u)+(0u) sd=96n ptwell=0 par=1 \
        p_vta=0 sca=-1 scb=-1 scc=-1 u0_mult=1 pre_layout_local=-1 p_la=0 \
        lpccnr=0 covpccnr=0 ngcon=1 wrxcnr=0 nsig_delvto_uo1=0 \
        nsig_delvto_uo2=0 swshe=0 swrg=1 swrsub=-1 swacc=-1 mismatch=1 \
        numcos=-1 pocos=-1 numcod=-1 pocod=-1 m=1 sc=-1 d0=-1 d1=-1 \
        nsig_dnoise=0 rthu=-1 cthu=-1 plorient=1 lle_pcrxn=0 lle_pcrxs=0
    M_I0_MXNA2 (net7 net10 net3 net8) nfet w=1.58E-07 l=3E-08 nf=(1)*(1) \
        sa=(0.076u)+(0u) sb=(0.076u)+(0u) sd=96n ptwell=0 par=1 p_vta=0 \
        sca=-1 scb=-1 scc=-1 u0_mult=1 pre_layout_local=-1 p_la=0 lpccnr=0 \
        covpccnr=0 ngcon=1 wrxcnr=0 nsig_delvto_uo1=0 nsig_delvto_uo2=0 \
        swshe=0 swrg=1 swrsub=-1 swacc=-1 mismatch=1 numcos=-1 pocos=-1 \
        numcod=-1 pocod=-1 m=1 sc=-1 d0=-1 d1=-1 nsig_dnoise=0 rthu=-1 \
        cthu=-1 plorient=1 lle_pcrxn=0 lle_pcrxs=0
    M_I0_MXNA1 (net13 net14 net7 net8) nfet w=1.58E-07 l=3E-08 nf=(1)*(1) \
        sa=(0.076u)+(0u) sb=(0.076u)+(0u) sd=96n ptwell=0 par=1 p_vta=0 \
        sca=-1 scb=-1 scc=-1 u0_mult=1 pre_layout_local=-1 p_la=0 lpccnr=0 \
        covpccnr=0 ngcon=1 wrxcnr=0 nsig_delvto_uo1=0 nsig_delvto_uo2=0 \
        swshe=0 swrg=1 swrsub=-1 swacc=-1 mismatch=1 numcos=-1 pocos=-1 \
        numcod=-1 pocod=-1 m=1 sc=-1 d0=-1 d1=-1 nsig_dnoise=0 rthu=-1 \
        cthu=-1 plorient=1 lle_pcrxn=0 lle_pcrxs=0
ends NAND2
// End of subcircuit definition.

// Library name: 0_BARAM
// Cell name: INV
// View name: schematic
subckt INV A net2 net4 net3 net6 net7
    MN0 (net2 A net4 net3) nfet w=100n l=30n nf=1 sa=76n sb=76n sd=96n \
        ptwell=0 par=1 p_vta=0 sca=-1 scb=-1 scc=-1 u0_mult=1 \
        pre_layout_local=-1 p_la=0 lpccnr=0 covpccnr=0 ngcon=1 wrxcnr=0 \
        nsig_delvto_uo1=0 nsig_delvto_uo2=0 swshe=0 swrg=1 swrsub=-1 \
        swacc=-1 mismatch=1 numcos=-1 pocos=-1 numcod=-1 pocod=-1 m=1 \
        sc=-1 d0=-1 d1=-1 nsig_dnoise=0 rthu=-1 cthu=-1 plorient=1 \
        lle_pcrxn=0 lle_pcrxs=0
    MP0 (net2 A net6 net7) pfet w=164n l=30n nf=1 sa=76n sb=76n sd=96n \
        ptwell=0 par=1 p_vta=0 sca=-1 scb=-1 scc=-1 u0_mult=1 \
        pre_layout_local=-1 p_la=0 lpccnr=0 covpccnr=0 ngcon=1 wrxcnr=0 \
        nsig_delvto_uo1=0 nsig_delvto_uo2=0 swshe=0 swrg=1 swrsub=-1 \
        swacc=-1 mismatch=1 numcos=-1 pocos=-1 numcod=-1 pocod=-1 m=1 \
        sc=-1 d0=-1 d1=-1 nsig_dnoise=0 rthu=-1 cthu=-1 plorient=1 \
        lle_pcrxn=0 lle_pcrxs=0
ends INV
// End of subcircuit definition.

// Library name: 0_BARAM
// Cell name: CDAC_12b
// View name: schematic
subckt CDAC_12b IN\<11\> IN\<10\> IN\<9\> IN\<8\> IN\<7\> IN\<6\> IN\<5\> \
        IN\<4\> IN\<3\> IN\<2\> IN\<1\> IN\<0\> VDD VOUT VSS VX
C2 (OUT\<2\> VX VSS VSS) cmom_6U1x_2U2x_2T8x_LB_sh c=4.436e-15 \
        nf_dirx=10.0 nf_diry=10.0 mtlfrbot=2 mtlfrtop=6 mtlconbot=2 \
        mtlcontop=5 spacefinger_mx=1e-07 wfinger_mx=1e-07 mismatch=1 \
        mult=4 pre_layout_local=-1 fr_big_finger=0
C13 (VSS VX VSS VSS) cmom_6U1x_2U2x_2T8x_LB_sh c=4.436e-15 nf_dirx=10.0 \
        nf_diry=10.0 mtlfrbot=2 mtlfrtop=6 mtlconbot=2 mtlcontop=5 \
        spacefinger_mx=1e-07 wfinger_mx=1e-07 mismatch=1 mult=143 \
        pre_layout_local=-1 fr_big_finger=0
C12 (VOUT VX VSS VSS) cmom_6U1x_2U2x_2T8x_LB_sh c=4.436e-15 nf_dirx=10.0 \
        nf_diry=10.0 mtlfrbot=2 mtlfrtop=6 mtlconbot=2 mtlcontop=5 \
        spacefinger_mx=1e-07 wfinger_mx=1e-07 mismatch=1 mult=6 \
        pre_layout_local=-1 fr_big_finger=0
C11 (OUT\<10\> VOUT VSS VSS) cmom_6U1x_2U2x_2T8x_LB_sh c=4.436e-15 \
        nf_dirx=10.0 nf_diry=10.0 mtlfrbot=2 mtlfrtop=6 mtlconbot=2 \
        mtlcontop=5 spacefinger_mx=1e-07 wfinger_mx=1e-07 mismatch=1 \
        mult=32 pre_layout_local=-1 fr_big_finger=0
C10 (OUT\<11\> VOUT VSS VSS) cmom_6U1x_2U2x_2T8x_LB_sh c=4.436e-15 \
        nf_dirx=10.0 nf_diry=10.0 mtlfrbot=2 mtlfrtop=6 mtlconbot=2 \
        mtlcontop=5 spacefinger_mx=1e-07 wfinger_mx=1e-07 mismatch=1 \
        mult=64 pre_layout_local=-1 fr_big_finger=0
C9 (OUT\<9\> VOUT VSS VSS) cmom_6U1x_2U2x_2T8x_LB_sh c=4.436e-15 \
        nf_dirx=10.0 nf_diry=10.0 mtlfrbot=2 mtlfrtop=6 mtlconbot=2 \
        mtlcontop=5 spacefinger_mx=1e-07 wfinger_mx=1e-07 mismatch=1 \
        mult=16 pre_layout_local=-1 fr_big_finger=0
C8 (OUT\<8\> VOUT VSS VSS) cmom_6U1x_2U2x_2T8x_LB_sh c=4.436e-15 \
        nf_dirx=10.0 nf_diry=10.0 mtlfrbot=2 mtlfrtop=6 mtlconbot=2 \
        mtlcontop=5 spacefinger_mx=1e-07 wfinger_mx=1e-07 mismatch=1 \
        mult=8 pre_layout_local=-1 fr_big_finger=0
C7 (OUT\<4\> VX VSS VSS) cmom_6U1x_2U2x_2T8x_LB_sh c=4.436e-15 \
        nf_dirx=10.0 nf_diry=10.0 mtlfrbot=2 mtlfrtop=6 mtlconbot=2 \
        mtlcontop=5 spacefinger_mx=1e-07 wfinger_mx=1e-07 mismatch=1 \
        mult=16 pre_layout_local=-1 fr_big_finger=0
C6 (OUT\<5\> VOUT VSS VSS) cmom_6U1x_2U2x_2T8x_LB_sh c=4.436e-15 \
        nf_dirx=10.0 nf_diry=10.0 mtlfrbot=2 mtlfrtop=6 mtlconbot=2 \
        mtlcontop=5 spacefinger_mx=1e-07 wfinger_mx=1e-07 mismatch=1 \
        mult=1 pre_layout_local=-1 fr_big_finger=0
C5 (OUT\<7\> VOUT VSS VSS) cmom_6U1x_2U2x_2T8x_LB_sh c=4.436e-15 \
        nf_dirx=10.0 nf_diry=10.0 mtlfrbot=2 mtlfrtop=6 mtlconbot=2 \
        mtlcontop=5 spacefinger_mx=1e-07 wfinger_mx=1e-07 mismatch=1 \
        mult=4 pre_layout_local=-1 fr_big_finger=0
C4 (OUT\<6\> VOUT VSS VSS) cmom_6U1x_2U2x_2T8x_LB_sh c=4.436e-15 \
        nf_dirx=10.0 nf_diry=10.0 mtlfrbot=2 mtlfrtop=6 mtlconbot=2 \
        mtlcontop=5 spacefinger_mx=1e-07 wfinger_mx=1e-07 mismatch=1 \
        mult=2 pre_layout_local=-1 fr_big_finger=0
C3 (OUT\<3\> VX VSS VSS) cmom_6U1x_2U2x_2T8x_LB_sh c=4.436e-15 \
        nf_dirx=10.0 nf_diry=10.0 mtlfrbot=2 mtlfrtop=6 mtlconbot=2 \
        mtlcontop=5 spacefinger_mx=1e-07 wfinger_mx=1e-07 mismatch=1 \
        mult=8 pre_layout_local=-1 fr_big_finger=0
C1 (OUT\<1\> VX VSS VSS) cmom_6U1x_2U2x_2T8x_LB_sh c=4.436e-15 \
        nf_dirx=10.0 nf_diry=10.0 mtlfrbot=2 mtlfrtop=6 mtlconbot=2 \
        mtlcontop=5 spacefinger_mx=1e-07 wfinger_mx=1e-07 mismatch=1 \
        mult=2 pre_layout_local=-1 fr_big_finger=0
C0 (OUT\<0\> VX VSS VSS) cmom_6U1x_2U2x_2T8x_LB_sh c=4.436e-15 \
        nf_dirx=10.0 nf_diry=10.0 mtlfrbot=2 mtlfrtop=6 mtlconbot=2 \
        mtlcontop=5 spacefinger_mx=1e-07 wfinger_mx=1e-07 mismatch=1 \
        mult=1 pre_layout_local=-1 fr_big_finger=0
    I0\<4\> (IN\<4\> OUT\<4\> VSS VSS VDD VDD) INV
    I0\<3\> (IN\<3\> OUT\<3\> VSS VSS VDD VDD) INV
    I0\<2\> (IN\<2\> OUT\<2\> VSS VSS VDD VDD) INV
    I0\<1\> (IN\<1\> OUT\<1\> VSS VSS VDD VDD) INV
    I0\<0\> (IN\<0\> OUT\<0\> VSS VSS VDD VDD) INV
    I1\<11\> (IN\<11\> OUT\<11\> VSS VSS VDD VDD) INV
    I1\<10\> (IN\<10\> OUT\<10\> VSS VSS VDD VDD) INV
    I1\<9\> (IN\<9\> OUT\<9\> VSS VSS VDD VDD) INV
    I1\<8\> (IN\<8\> OUT\<8\> VSS VSS VDD VDD) INV
    I1\<7\> (IN\<7\> OUT\<7\> VSS VSS VDD VDD) INV
    I1\<6\> (IN\<6\> OUT\<6\> VSS VSS VDD VDD) INV
    I1\<5\> (IN\<5\> OUT\<5\> VSS VSS VDD VDD) INV
ends CDAC_12b
// End of subcircuit definition.

// Library name: 0_BARAM
// Cell name: BUF
// View name: schematic
subckt BUF net10 net13 net7 net8 net15 net16
    M_I0_MXPA1 (net14 net10 net15 net16) pfet w=1.83E-07 l=3E-08 \
        nf=(1)*(1) sa=(0.076u)+(0u) sb=(0.076u)+(0u) sd=96n ptwell=0 par=1 \
        p_vta=0 sca=-1 scb=-1 scc=-1 u0_mult=1 pre_layout_local=-1 p_la=0 \
        lpccnr=0 covpccnr=0 ngcon=1 wrxcnr=0 nsig_delvto_uo1=0 \
        nsig_delvto_uo2=0 swshe=0 swrg=1 swrsub=-1 swacc=-1 mismatch=1 \
        numcos=-1 pocos=-1 numcod=-1 pocod=-1 m=1 sc=-1 d0=-1 d1=-1 \
        nsig_dnoise=0 rthu=-1 cthu=-1 plorient=1 lle_pcrxn=0 lle_pcrxs=0
    M_I1_MXPA1 (net13 net14 net15 net16) pfet w=2.23E-07 l=3E-08 \
        nf=(1)*(1) sa=(0.076u)+(0u) sb=(0.076u)+(0u) sd=96n ptwell=0 par=1 \
        p_vta=0 sca=-1 scb=-1 scc=-1 u0_mult=1 pre_layout_local=-1 p_la=0 \
        lpccnr=0 covpccnr=0 ngcon=1 wrxcnr=0 nsig_delvto_uo1=0 \
        nsig_delvto_uo2=0 swshe=0 swrg=1 swrsub=-1 swacc=-1 mismatch=1 \
        numcos=-1 pocos=-1 numcod=-1 pocod=-1 m=1 sc=-1 d0=-1 d1=-1 \
        nsig_dnoise=0 rthu=-1 cthu=-1 plorient=1 lle_pcrxn=0 lle_pcrxs=0
    M_I0_MXNA1 (net14 net10 net7 net8) nfet w=1E-07 l=3E-08 nf=(1)*(1) \
        sa=(0.076u)+(0u) sb=(0.076u)+(0u) sd=96n ptwell=0 par=1 p_vta=0 \
        sca=-1 scb=-1 scc=-1 u0_mult=1 pre_layout_local=-1 p_la=0 lpccnr=0 \
        covpccnr=0 ngcon=1 wrxcnr=0 nsig_delvto_uo1=0 nsig_delvto_uo2=0 \
        swshe=0 swrg=1 swrsub=-1 swacc=-1 mismatch=1 numcos=-1 pocos=-1 \
        numcod=-1 pocod=-1 m=1 sc=-1 d0=-1 d1=-1 nsig_dnoise=0 rthu=-1 \
        cthu=-1 plorient=1 lle_pcrxn=0 lle_pcrxs=0
    M_I1_MXNA1 (net13 net14 net7 net8) nfet w=1.22E-07 l=3E-08 nf=(1)*(1) \
        sa=(0.076u)+(0u) sb=(0.076u)+(0u) sd=96n ptwell=0 par=1 p_vta=0 \
        sca=-1 scb=-1 scc=-1 u0_mult=1 pre_layout_local=-1 p_la=0 lpccnr=0 \
        covpccnr=0 ngcon=1 wrxcnr=0 nsig_delvto_uo1=0 nsig_delvto_uo2=0 \
        swshe=0 swrg=1 swrsub=-1 swacc=-1 mismatch=1 numcos=-1 pocos=-1 \
        numcod=-1 pocod=-1 m=1 sc=-1 d0=-1 d1=-1 nsig_dnoise=0 rthu=-1 \
        cthu=-1 plorient=1 lle_pcrxn=0 lle_pcrxs=0
ends BUF
// End of subcircuit definition.

// Library name: 0_BARAM
// Cell name: NOR2
// View name: schematic
subckt NOR2 net14 net10 net15 net7 net8 net9 net16
    M_I0_MXPA2 (net9 net10 net13 net16) pfet w=1.58E-07 l=3E-08 nf=(1)*(1) \
        sa=(0.076u)+(0u) sb=(0.076u)+(0u) sd=96n ptwell=0 par=1 p_vta=0 \
        sca=-1 scb=-1 scc=-1 u0_mult=1 pre_layout_local=-1 p_la=0 lpccnr=0 \
        covpccnr=0 ngcon=1 wrxcnr=0 nsig_delvto_uo1=0 nsig_delvto_uo2=0 \
        swshe=0 swrg=1 swrsub=-1 swacc=-1 mismatch=1 numcos=-1 pocos=-1 \
        numcod=-1 pocod=-1 m=1 sc=-1 d0=-1 d1=-1 nsig_dnoise=0 rthu=-1 \
        cthu=-1 plorient=1 lle_pcrxn=0 lle_pcrxs=0
    M_I0_MXPA1 (net13 net14 net15 net16) pfet w=1.58E-07 l=3E-08 \
        nf=(1)*(1) sa=(0.076u)+(0u) sb=(0.076u)+(0u) sd=96n ptwell=0 par=1 \
        p_vta=0 sca=-1 scb=-1 scc=-1 u0_mult=1 pre_layout_local=-1 p_la=0 \
        lpccnr=0 covpccnr=0 ngcon=1 wrxcnr=0 nsig_delvto_uo1=0 \
        nsig_delvto_uo2=0 swshe=0 swrg=1 swrsub=-1 swacc=-1 mismatch=1 \
        numcos=-1 pocos=-1 numcod=-1 pocod=-1 m=1 sc=-1 d0=-1 d1=-1 \
        nsig_dnoise=0 rthu=-1 cthu=-1 plorient=1 lle_pcrxn=0 lle_pcrxs=0
    M_I0_MXNA2 (net7 net10 net15 net8) nfet w=1E-07 l=3E-08 nf=(1)*(1) \
        sa=(0.076u)+(0u) sb=(0.076u)+(0u) sd=96n ptwell=0 par=1 p_vta=0 \
        sca=-1 scb=-1 scc=-1 u0_mult=1 pre_layout_local=-1 p_la=0 lpccnr=0 \
        covpccnr=0 ngcon=1 wrxcnr=0 nsig_delvto_uo1=0 nsig_delvto_uo2=0 \
        swshe=0 swrg=1 swrsub=-1 swacc=-1 mismatch=1 numcos=-1 pocos=-1 \
        numcod=-1 pocod=-1 m=1 sc=-1 d0=-1 d1=-1 nsig_dnoise=0 rthu=-1 \
        cthu=-1 plorient=1 lle_pcrxn=0 lle_pcrxs=0
    M_I0_MXNA1 (net15 net14 net7 net8) nfet w=1E-07 l=3E-08 nf=(1)*(1) \
        sa=(0.076u)+(0u) sb=(0.076u)+(0u) sd=96n ptwell=0 par=1 p_vta=0 \
        sca=-1 scb=-1 scc=-1 u0_mult=1 pre_layout_local=-1 p_la=0 lpccnr=0 \
        covpccnr=0 ngcon=1 wrxcnr=0 nsig_delvto_uo1=0 nsig_delvto_uo2=0 \
        swshe=0 swrg=1 swrsub=-1 swacc=-1 mismatch=1 numcos=-1 pocos=-1 \
        numcod=-1 pocod=-1 m=1 sc=-1 d0=-1 d1=-1 nsig_dnoise=0 rthu=-1 \
        cthu=-1 plorient=1 lle_pcrxn=0 lle_pcrxs=0
ends NOR2
// End of subcircuit definition.

// Library name: 0_BARAM
// Cell name: CDAC_17b
// View name: schematic
subckt CDAC_17b IN\<16\> IN\<15\> IN\<14\> IN\<13\> IN\<12\> IN\<11\> \
        IN\<10\> IN\<4\> IN\<3\> IN\<2\> IN\<1\> IN\<0\> IN\<9\> IN\<8\> \
        IN\<7\> IN\<6\> IN\<5\> VDD VM VOUT VSS VX
C19 (OUT\<11\> VOUT VSS VSS) cmom_6U1x_2U2x_2T8x_LB_sh c=4.436e-15 \
        nf_dirx=10.0 nf_diry=10.0 mtlfrbot=2 mtlfrtop=6 mtlconbot=2 \
        mtlcontop=5 spacefinger_mx=1e-07 wfinger_mx=1e-07 mismatch=1 \
        mult=2 pre_layout_local=-1 fr_big_finger=0
C18 (OUT\<12\> VOUT VSS VSS) cmom_6U1x_2U2x_2T8x_LB_sh c=4.436e-15 \
        nf_dirx=10.0 nf_diry=10.0 mtlfrbot=2 mtlfrtop=6 mtlconbot=2 \
        mtlcontop=5 spacefinger_mx=1e-07 wfinger_mx=1e-07 mismatch=1 \
        mult=4 pre_layout_local=-1 fr_big_finger=0
C17 (OUT\<10\> VOUT VSS VSS) cmom_6U1x_2U2x_2T8x_LB_sh c=4.436e-15 \
        nf_dirx=10.0 nf_diry=10.0 mtlfrbot=2 mtlfrtop=6 mtlconbot=2 \
        mtlcontop=5 spacefinger_mx=1e-07 wfinger_mx=1e-07 mismatch=1 \
        mult=1 pre_layout_local=-1 fr_big_finger=0
C16 (OUT\<13\> VOUT VSS VSS) cmom_6U1x_2U2x_2T8x_LB_sh c=4.436e-15 \
        nf_dirx=10.0 nf_diry=10.0 mtlfrbot=2 mtlfrtop=6 mtlconbot=2 \
        mtlcontop=5 spacefinger_mx=1e-07 wfinger_mx=1e-07 mismatch=1 \
        mult=8 pre_layout_local=-1 fr_big_finger=0
C15 (OUT\<14\> VOUT VSS VSS) cmom_6U1x_2U2x_2T8x_LB_sh c=4.436e-15 \
        nf_dirx=10.0 nf_diry=10.0 mtlfrbot=2 mtlfrtop=6 mtlconbot=2 \
        mtlcontop=5 spacefinger_mx=1e-07 wfinger_mx=1e-07 mismatch=1 \
        mult=16 pre_layout_local=-1 fr_big_finger=0
C14 (VOUT VM VSS VSS) cmom_6U1x_2U2x_2T8x_LB_sh c=4.436e-15 nf_dirx=10.0 \
        nf_diry=10.0 mtlfrbot=2 mtlfrtop=6 mtlconbot=2 mtlcontop=5 \
        spacefinger_mx=1e-07 wfinger_mx=1e-07 mismatch=1 mult=6 \
        pre_layout_local=-1 fr_big_finger=0
C21 (VSS VM VSS VSS) cmom_6U1x_2U2x_2T8x_LB_sh c=4.436e-15 nf_dirx=10.0 \
        nf_diry=10.0 mtlfrbot=2 mtlfrtop=6 mtlconbot=2 mtlcontop=5 \
        spacefinger_mx=1e-07 wfinger_mx=1e-07 mismatch=1 mult=133 \
        pre_layout_local=-1 fr_big_finger=0
C0 (OUT\<0\> VX VSS VSS) cmom_6U1x_2U2x_2T8x_LB_sh c=4.436e-15 \
        nf_dirx=10.0 nf_diry=10.0 mtlfrbot=2 mtlfrtop=6 mtlconbot=2 \
        mtlcontop=5 spacefinger_mx=1e-07 wfinger_mx=1e-07 mismatch=1 \
        mult=1 pre_layout_local=-1 fr_big_finger=0
C1 (OUT\<1\> VX VSS VSS) cmom_6U1x_2U2x_2T8x_LB_sh c=4.436e-15 \
        nf_dirx=10.0 nf_diry=10.0 mtlfrbot=2 mtlfrtop=6 mtlconbot=2 \
        mtlcontop=5 spacefinger_mx=1e-07 wfinger_mx=1e-07 mismatch=1 \
        mult=2 pre_layout_local=-1 fr_big_finger=0
C3 (OUT\<3\> VX VSS VSS) cmom_6U1x_2U2x_2T8x_LB_sh c=4.436e-15 \
        nf_dirx=10.0 nf_diry=10.0 mtlfrbot=2 mtlfrtop=6 mtlconbot=2 \
        mtlcontop=5 spacefinger_mx=1e-07 wfinger_mx=1e-07 mismatch=1 \
        mult=8 pre_layout_local=-1 fr_big_finger=0
C4 (OUT\<6\> VM VSS VSS) cmom_6U1x_2U2x_2T8x_LB_sh c=4.436e-15 \
        nf_dirx=10.0 nf_diry=10.0 mtlfrbot=2 mtlfrtop=6 mtlconbot=2 \
        mtlcontop=5 spacefinger_mx=1e-07 wfinger_mx=1e-07 mismatch=1 \
        mult=2 pre_layout_local=-1 fr_big_finger=0
C5 (OUT\<7\> VM VSS VSS) cmom_6U1x_2U2x_2T8x_LB_sh c=4.436e-15 \
        nf_dirx=10.0 nf_diry=10.0 mtlfrbot=2 mtlfrtop=6 mtlconbot=2 \
        mtlcontop=5 spacefinger_mx=1e-07 wfinger_mx=1e-07 mismatch=1 \
        mult=4 pre_layout_local=-1 fr_big_finger=0
C6 (OUT\<5\> VM VSS VSS) cmom_6U1x_2U2x_2T8x_LB_sh c=4.436e-15 \
        nf_dirx=10.0 nf_diry=10.0 mtlfrbot=2 mtlfrtop=6 mtlconbot=2 \
        mtlcontop=5 spacefinger_mx=1e-07 wfinger_mx=1e-07 mismatch=1 \
        mult=1 pre_layout_local=-1 fr_big_finger=0
C7 (OUT\<4\> VX VSS VSS) cmom_6U1x_2U2x_2T8x_LB_sh c=4.436e-15 \
        nf_dirx=10.0 nf_diry=10.0 mtlfrbot=2 mtlfrtop=6 mtlconbot=2 \
        mtlcontop=5 spacefinger_mx=1e-07 wfinger_mx=1e-07 mismatch=1 \
        mult=16 pre_layout_local=-1 fr_big_finger=0
C8 (OUT\<8\> VM VSS VSS) cmom_6U1x_2U2x_2T8x_LB_sh c=4.436e-15 \
        nf_dirx=10.0 nf_diry=10.0 mtlfrbot=2 mtlfrtop=6 mtlconbot=2 \
        mtlcontop=5 spacefinger_mx=1e-07 wfinger_mx=1e-07 mismatch=1 \
        mult=8 pre_layout_local=-1 fr_big_finger=0
C9 (OUT\<9\> VM VSS VSS) cmom_6U1x_2U2x_2T8x_LB_sh c=4.436e-15 \
        nf_dirx=10.0 nf_diry=10.0 mtlfrbot=2 mtlfrtop=6 mtlconbot=2 \
        mtlcontop=5 spacefinger_mx=1e-07 wfinger_mx=1e-07 mismatch=1 \
        mult=16 pre_layout_local=-1 fr_big_finger=0
C10 (OUT\<16\> VOUT VSS VSS) cmom_6U1x_2U2x_2T8x_LB_sh c=4.436e-15 \
        nf_dirx=10.0 nf_diry=10.0 mtlfrbot=2 mtlfrtop=6 mtlconbot=2 \
        mtlcontop=5 spacefinger_mx=1e-07 wfinger_mx=1e-07 mismatch=1 \
        mult=64 pre_layout_local=-1 fr_big_finger=0
C11 (OUT\<15\> VOUT VSS VSS) cmom_6U1x_2U2x_2T8x_LB_sh c=4.436e-15 \
        nf_dirx=10.0 nf_diry=10.0 mtlfrbot=2 mtlfrtop=6 mtlconbot=2 \
        mtlcontop=5 spacefinger_mx=1e-07 wfinger_mx=1e-07 mismatch=1 \
        mult=32 pre_layout_local=-1 fr_big_finger=0
C12 (VM VX VSS VSS) cmom_6U1x_2U2x_2T8x_LB_sh c=4.436e-15 nf_dirx=10.0 \
        nf_diry=10.0 mtlfrbot=2 mtlfrtop=6 mtlconbot=2 mtlcontop=5 \
        spacefinger_mx=1e-07 wfinger_mx=1e-07 mismatch=1 mult=11 \
        pre_layout_local=-1 fr_big_finger=0
C13 (VSS VX VSS VSS) cmom_6U1x_2U2x_2T8x_LB_sh c=4.436e-15 nf_dirx=10.0 \
        nf_diry=10.0 mtlfrbot=2 mtlfrtop=6 mtlconbot=2 mtlcontop=5 \
        spacefinger_mx=1e-07 wfinger_mx=1e-07 mismatch=1 mult=279 \
        pre_layout_local=-1 fr_big_finger=0
C2 (OUT\<2\> VX VSS VSS) cmom_6U1x_2U2x_2T8x_LB_sh c=4.436e-15 \
        nf_dirx=10.0 nf_diry=10.0 mtlfrbot=2 mtlfrtop=6 mtlconbot=2 \
        mtlcontop=5 spacefinger_mx=1e-07 wfinger_mx=1e-07 mismatch=1 \
        mult=4 pre_layout_local=-1 fr_big_finger=0
    I1\<9\> (IN\<9\> OUT\<9\> VSS VSS VDD VDD) INV
    I1\<8\> (IN\<8\> OUT\<8\> VSS VSS VDD VDD) INV
    I1\<7\> (IN\<7\> OUT\<7\> VSS VSS VDD VDD) INV
    I1\<6\> (IN\<6\> OUT\<6\> VSS VSS VDD VDD) INV
    I1\<5\> (IN\<5\> OUT\<5\> VSS VSS VDD VDD) INV
    I0\<16\> (IN\<16\> OUT\<16\> VSS VSS VDD VDD) INV
    I0\<15\> (IN\<15\> OUT\<15\> VSS VSS VDD VDD) INV
    I0\<14\> (IN\<14\> OUT\<14\> VSS VSS VDD VDD) INV
    I0\<13\> (IN\<13\> OUT\<13\> VSS VSS VDD VDD) INV
    I0\<12\> (IN\<12\> OUT\<12\> VSS VSS VDD VDD) INV
    I0\<11\> (IN\<11\> OUT\<11\> VSS VSS VDD VDD) INV
    I0\<10\> (IN\<10\> OUT\<10\> VSS VSS VDD VDD) INV
    I0\<4\> (IN\<4\> OUT\<4\> VSS VSS VDD VDD) INV
    I0\<3\> (IN\<3\> OUT\<3\> VSS VSS VDD VDD) INV
    I0\<2\> (IN\<2\> OUT\<2\> VSS VSS VDD VDD) INV
    I0\<1\> (IN\<1\> OUT\<1\> VSS VSS VDD VDD) INV
    I0\<0\> (IN\<0\> OUT\<0\> VSS VSS VDD VDD) INV
ends CDAC_17b
// End of subcircuit definition.

// Library name: 0_BARAM
// Cell name: NOR3
// View name: schematic
subckt NOR3 net22 net14 net18 net23 net9 net12 net19 net24
    P2 (net17 net14 net21 net24) pfet w=1.57E-07 l=3E-08 nf=(1)*(1) \
        sa=(0.076u)+(0u) sb=(0.076u)+(0u) sd=96n ptwell=0 par=1 p_vta=0 \
        sca=-1 scb=-1 scc=-1 u0_mult=1 pre_layout_local=-1 p_la=0 lpccnr=0 \
        covpccnr=0 ngcon=1 wrxcnr=0 nsig_delvto_uo1=0 nsig_delvto_uo2=0 \
        swshe=0 swrg=1 swrsub=-1 swacc=-1 mismatch=1 numcos=-1 pocos=-1 \
        numcod=-1 pocod=-1 m=1 sc=-1 d0=-1 d1=-1 nsig_dnoise=0 rthu=-1 \
        cthu=-1 plorient=1 lle_pcrxn=0 lle_pcrxs=0
    P1 (net17 net18 net19 net24) pfet w=1.57E-07 l=3E-08 nf=(1)*(1) \
        sa=(0.076u)+(0u) sb=(0.076u)+(0u) sd=96n ptwell=0 par=1 p_vta=0 \
        sca=-1 scb=-1 scc=-1 u0_mult=1 pre_layout_local=-1 p_la=0 lpccnr=0 \
        covpccnr=0 ngcon=1 wrxcnr=0 nsig_delvto_uo1=0 nsig_delvto_uo2=0 \
        swshe=0 swrg=1 swrsub=-1 swacc=-1 mismatch=1 numcos=-1 pocos=-1 \
        numcod=-1 pocod=-1 m=1 sc=-1 d0=-1 d1=-1 nsig_dnoise=0 rthu=-1 \
        cthu=-1 plorient=1 lle_pcrxn=0 lle_pcrxs=0
    P0 (net21 net22 net23 net24) pfet w=1.57E-07 l=3E-08 nf=(1)*(1) \
        sa=(0.076u)+(0u) sb=(0.076u)+(0u) sd=96n ptwell=0 par=1 p_vta=0 \
        sca=-1 scb=-1 scc=-1 u0_mult=1 pre_layout_local=-1 p_la=0 lpccnr=0 \
        covpccnr=0 ngcon=1 wrxcnr=0 nsig_delvto_uo1=0 nsig_delvto_uo2=0 \
        swshe=0 swrg=1 swrsub=-1 swacc=-1 mismatch=1 numcos=-1 pocos=-1 \
        numcod=-1 pocod=-1 m=1 sc=-1 d0=-1 d1=-1 nsig_dnoise=0 rthu=-1 \
        cthu=-1 plorient=1 lle_pcrxn=0 lle_pcrxs=0
    N2 (net23 net14 net9 net12) nfet w=1E-07 l=3E-08 nf=(1)*(1) \
        sa=(0.076u)+(0u) sb=(0.076u)+(0u) sd=96n ptwell=0 par=1 p_vta=0 \
        sca=-1 scb=-1 scc=-1 u0_mult=1 pre_layout_local=-1 p_la=0 lpccnr=0 \
        covpccnr=0 ngcon=1 wrxcnr=0 nsig_delvto_uo1=0 nsig_delvto_uo2=0 \
        swshe=0 swrg=1 swrsub=-1 swacc=-1 mismatch=1 numcos=-1 pocos=-1 \
        numcod=-1 pocod=-1 m=1 sc=-1 d0=-1 d1=-1 nsig_dnoise=0 rthu=-1 \
        cthu=-1 plorient=1 lle_pcrxn=0 lle_pcrxs=0
    N1 (net23 net18 net9 net12) nfet w=1E-07 l=3E-08 nf=(1)*(1) \
        sa=(0.076u)+(0u) sb=(0.076u)+(0u) sd=96n ptwell=0 par=1 p_vta=0 \
        sca=-1 scb=-1 scc=-1 u0_mult=1 pre_layout_local=-1 p_la=0 lpccnr=0 \
        covpccnr=0 ngcon=1 wrxcnr=0 nsig_delvto_uo1=0 nsig_delvto_uo2=0 \
        swshe=0 swrg=1 swrsub=-1 swacc=-1 mismatch=1 numcos=-1 pocos=-1 \
        numcod=-1 pocod=-1 m=1 sc=-1 d0=-1 d1=-1 nsig_dnoise=0 rthu=-1 \
        cthu=-1 plorient=1 lle_pcrxn=0 lle_pcrxs=0
    N0 (net9 net22 net23 net12) nfet w=1E-07 l=3E-08 nf=(1)*(1) \
        sa=(0.076u)+(0u) sb=(0.076u)+(0u) sd=96n ptwell=0 par=1 p_vta=0 \
        sca=-1 scb=-1 scc=-1 u0_mult=1 pre_layout_local=-1 p_la=0 lpccnr=0 \
        covpccnr=0 ngcon=1 wrxcnr=0 nsig_delvto_uo1=0 nsig_delvto_uo2=0 \
        swshe=0 swrg=1 swrsub=-1 swacc=-1 mismatch=1 numcos=-1 pocos=-1 \
        numcod=-1 pocod=-1 m=1 sc=-1 d0=-1 d1=-1 nsig_dnoise=0 rthu=-1 \
        cthu=-1 plorient=1 lle_pcrxn=0 lle_pcrxs=0
ends NOR3
// End of subcircuit definition.

// Library name: 0_BARAM
// Cell name: MUX21
// View name: schematic
subckt MUX21 D0 D1 net53 net48 net56 net55 net26 net27
    M_I5_MXPA2 (net49 net53 net26 net27) pfet w=1.17E-07 l=3E-08 \
        nf=(1)*(1) sa=(0.076u)+(0u) sb=(0.076u)+(0u) sd=96n ptwell=0 par=1 \
        p_vta=0 sca=-1 scb=-1 scc=-1 u0_mult=1 pre_layout_local=-1 p_la=0 \
        lpccnr=0 covpccnr=0 ngcon=1 wrxcnr=0 nsig_delvto_uo1=0 \
        nsig_delvto_uo2=0 swshe=0 swrg=1 swrsub=-1 swacc=-1 mismatch=1 \
        numcos=-1 pocos=-1 numcod=-1 pocod=-1 m=1 sc=-1 d0=-1 d1=-1 \
        nsig_dnoise=0 rthu=-1 cthu=-1 plorient=1 lle_pcrxn=0 lle_pcrxs=0
    M_I2_MXPA1 (net54 net53 net26 net27) pfet w=1.33E-07 l=3E-08 \
        nf=(1)*(1) sa=(0.076u)+(0u) sb=(0.076u)+(0u) sd=96n ptwell=0 par=1 \
        p_vta=0 sca=-1 scb=-1 scc=-1 u0_mult=1 pre_layout_local=-1 p_la=0 \
        lpccnr=0 covpccnr=0 ngcon=1 wrxcnr=0 nsig_delvto_uo1=0 \
        nsig_delvto_uo2=0 swshe=0 swrg=1 swrsub=-1 swacc=-1 mismatch=1 \
        numcos=-1 pocos=-1 numcod=-1 pocod=-1 m=1 sc=-1 d0=-1 d1=-1 \
        nsig_dnoise=0 rthu=-1 cthu=-1 plorient=1 lle_pcrxn=0 lle_pcrxs=0
    M_I4_MXPA2 (net26 net54 net45 net27) pfet w=1.17E-07 l=3E-08 \
        nf=(1)*(1) sa=(0.076u)+(0u) sb=(0.076u)+(0u) sd=96n ptwell=0 par=1 \
        p_vta=0 sca=-1 scb=-1 scc=-1 u0_mult=1 pre_layout_local=-1 p_la=0 \
        lpccnr=0 covpccnr=0 ngcon=1 wrxcnr=0 nsig_delvto_uo1=0 \
        nsig_delvto_uo2=0 swshe=0 swrg=1 swrsub=-1 swacc=-1 mismatch=1 \
        numcos=-1 pocos=-1 numcod=-1 pocod=-1 m=1 sc=-1 d0=-1 d1=-1 \
        nsig_dnoise=0 rthu=-1 cthu=-1 plorient=1 lle_pcrxn=0 lle_pcrxs=0
    M_I3_MXPA2 (net26 net49 net48 net27) pfet w=1.58E-07 l=3E-08 \
        nf=(1)*(1) sa=(0.076u)+(0u) sb=(0.076u)+(0u) sd=96n ptwell=0 par=1 \