// Generated for: spectre
// Generated on: Jul  1 17:11:38 2026
// Design library name: 0_BARAM
// Design cell name: test_StrongARMfull
// Design view name: schematic
simulator lang=spectre
global 0
include "/SF28_dk/SF28_LNR/analog/pdk_analog/LNR28FDS_Spectre_S00-V1.3.5.1/Spectre/LNR28FDS_Spectre_STD.lib" section=tt

// Library name: 0_BARAM
// Cell name: INV
// View name: schematic
subckt INV A net2 net4 net3 net6 net7
    MN0 (net2 A net4 net3) nfet w=100n l=30n nf=1 sa=76n sb=76n sd=96n \
        ptwell=0 par=1 p_vta=0 sca=-1 scb=-1 scc=-1 u0_mult=1 \
        pre_layout_local=-1 p_la=0 lpccnr=0 covpccnr=0 ngcon=1 wrxcnr=0 \
        nsig_delvto_uo1=0 nsig_delvto_uo2=0 swshe=0 swrg=1 swrsub=-1 \
        swacc=-1 mismatch=1 numcos=-1 pocos=-1 numcod=-1 pocod=-1 m=1 \
        sc=-1 d0=-1 d1=-1 nsig_dnoise=0 rthu=-1 cthu=-1 plorient=1 \
        lle_pcrxn=0 lle_pcrxs=0
    MP0 (net2 A net6 net7) pfet w=164n l=30n nf=1 sa=76n sb=76n sd=96n \
        ptwell=0 par=1 p_vta=0 sca=-1 scb=-1 scc=-1 u0_mult=1 \
        pre_layout_local=-1 p_la=0 lpccnr=0 covpccnr=0 ngcon=1 wrxcnr=0 \
        nsig_delvto_uo1=0 nsig_delvto_uo2=0 swshe=0 swrg=1 swrsub=-1 \
        swacc=-1 mismatch=1 numcos=-1 pocos=-1 numcod=-1 pocod=-1 m=1 \
        sc=-1 d0=-1 d1=-1 nsig_dnoise=0 rthu=-1 cthu=-1 plorient=1 \
        lle_pcrxn=0 lle_pcrxs=0
ends INV
// End of subcircuit definition.

// Library name: 0_BARAM
// Cell name: NOR2
// View name: schematic
subckt NOR2 net14 net10 net15 net7 net8 net9 net16
    M_I0_MXPA2 (net9 net10 net13 net16) pfet w=1.58E-07 l=3E-08 nf=(1)*(1) \
        sa=(0.076u)+(0u) sb=(0.076u)+(0u) sd=96n ptwell=0 par=1 p_vta=0 \
        sca=-1 scb=-1 scc=-1 u0_mult=1 pre_layout_local=-1 p_la=0 lpccnr=0 \
        covpccnr=0 ngcon=1 wrxcnr=0 nsig_delvto_uo1=0 nsig_delvto_uo2=0 \
        swshe=0 swrg=1 swrsub=-1 swacc=-1 mismatch=1 numcos=-1 pocos=-1 \
        numcod=-1 pocod=-1 m=1 sc=-1 d0=-1 d1=-1 nsig_dnoise=0 rthu=-1 \
        cthu=-1 plorient=1 lle_pcrxn=0 lle_pcrxs=0
    M_I0_MXPA1 (net13 net14 net15 net16) pfet w=1.58E-07 l=3E-08 \
        nf=(1)*(1) sa=(0.076u)+(0u) sb=(0.076u)+(0u) sd=96n ptwell=0 par=1 \
        p_vta=0 sca=-1 scb=-1 scc=-1 u0_mult=1 pre_layout_local=-1 p_la=0 \
        lpccnr=0 covpccnr=0 ngcon=1 wrxcnr=0 nsig_delvto_uo1=0 \
        nsig_delvto_uo2=0 swshe=0 swrg=1 swrsub=-1 swacc=-1 mismatch=1 \
        numcos=-1 pocos=-1 numcod=-1 pocod=-1 m=1 sc=-1 d0=-1 d1=-1 \
        nsig_dnoise=0 rthu=-1 cthu=-1 plorient=1 lle_pcrxn=0 lle_pcrxs=0
    M_I0_MXNA2 (net7 net10 net15 net8) nfet w=1E-07 l=3E-08 nf=(1)*(1) \
        sa=(0.076u)+(0u) sb=(0.076u)+(0u) sd=96n ptwell=0 par=1 p_vta=0 \
        sca=-1 scb=-1 scc=-1 u0_mult=1 pre_layout_local=-1 p_la=0 lpccnr=0 \
        covpccnr=0 ngcon=1 wrxcnr=0 nsig_delvto_uo1=0 nsig_delvto_uo2=0 \
        swshe=0 swrg=1 swrsub=-1 swacc=-1 mismatch=1 numcos=-1 pocos=-1 \
        numcod=-1 pocod=-1 m=1 sc=-1 d0=-1 d1=-1 nsig_dnoise=0 rthu=-1 \
        cthu=-1 plorient=1 lle_pcrxn=0 lle_pcrxs=0
    M_I0_MXNA1 (net15 net14 net7 net8) nfet w=1E-07 l=3E-08 nf=(1)*(1) \
        sa=(0.076u)+(0u) sb=(0.076u)+(0u) sd=96n ptwell=0 par=1 p_vta=0 \
        sca=-1 scb=-1 scc=-1 u0_mult=1 pre_layout_local=-1 p_la=0 lpccnr=0 \
        covpccnr=0 ngcon=1 wrxcnr=0 nsig_delvto_uo1=0 nsig_delvto_uo2=0 \
        swshe=0 swrg=1 swrsub=-1 swacc=-1 mismatch=1 numcos=-1 pocos=-1 \
        numcod=-1 pocod=-1 m=1 sc=-1 d0=-1 d1=-1 nsig_dnoise=0 rthu=-1 \
        cthu=-1 plorient=1 lle_pcrxn=0 lle_pcrxs=0
ends NOR2
// End of subcircuit definition.

// Library name: 0_BARAM
// Cell name: StrongARM
// View name: schematic
subckt StrongARM CLK OUT OUTB VDD VINN VINP VSS
    N7 (outp outn net9 VSS) lvtnfet w=160n l=80n as=12.16f ad=12.16f \
        nf=(1)*(1) sa=(76n)+(0) sb=(76n)+(0) sd=96n ptwell=0 par=1 p_vta=0 \
        sca=-1 scb=-1 scc=-1 u0_mult=1 pre_layout_local=-1 p_la=0 lpccnr=0 \
        covpccnr=0 ngcon=1 wrxcnr=0 nsig_delvto_uo1=0 nsig_delvto_uo2=0 \
        swshe=0 swrg=1 swrsub=-1 swacc=-1 mismatch=1 numcos=-1 pocos=-1 \
        numcod=-1 pocod=-1 m=1 sc=-1 d0=-1 d1=-1 nsig_dnoise=0 rthu=-1 \
        cthu=-1 plorient=1 lle_pcrxn=0 lle_pcrxs=0
    N6 (outn outp net8 VSS) lvtnfet w=160n l=80n as=12.16f ad=12.16f \
        nf=(1)*(1) sa=(76n)+(0) sb=(76n)+(0) sd=96n ptwell=0 par=1 p_vta=0 \
        sca=-1 scb=-1 scc=-1 u0_mult=1 pre_layout_local=-1 p_la=0 lpccnr=0 \
        covpccnr=0 ngcon=1 wrxcnr=0 nsig_delvto_uo1=0 nsig_delvto_uo2=0 \
        swshe=0 swrg=1 swrsub=-1 swacc=-1 mismatch=1 numcos=-1 pocos=-1 \
        numcod=-1 pocod=-1 m=1 sc=-1 d0=-1 d1=-1 nsig_dnoise=0 rthu=-1 \
        cthu=-1 plorient=1 lle_pcrxn=0 lle_pcrxs=0
    N5 (input1 VDD input2 VSS) lvtnfet w=80n l=30n as=6.08f ad=6.08f \
        nf=(1)*(1) sa=(76n)+(0) sb=(76n)+(0) sd=96n ptwell=0 par=1 p_vta=0 \
        sca=-1 scb=-1 scc=-1 u0_mult=1 pre_layout_local=-1 p_la=0 lpccnr=0 \
        covpccnr=0 ngcon=1 wrxcnr=0 nsig_delvto_uo1=0 nsig_delvto_uo2=0 \
        swshe=0 swrg=1 swrsub=-1 swacc=-1 mismatch=1 numcos=-1 pocos=-1 \
        numcod=-1 pocod=-1 m=1 sc=-1 d0=-1 d1=-1 nsig_dnoise=0 rthu=-1 \
        cthu=-1 plorient=1 lle_pcrxn=0 lle_pcrxs=0
    N4 (net9 CLK input2 VSS) lvtnfet w=80n l=30n as=6.08f ad=6.08f \
        nf=(1)*(1) sa=(76n)+(0) sb=(76n)+(0) sd=96n ptwell=0 par=1 p_vta=0 \
        sca=-1 scb=-1 scc=-1 u0_mult=1 pre_layout_local=-1 p_la=0 lpccnr=0 \
        covpccnr=0 ngcon=1 wrxcnr=0 nsig_delvto_uo1=0 nsig_delvto_uo2=0 \
        swshe=0 swrg=1 swrsub=-1 swacc=-1 mismatch=1 numcos=-1 pocos=-1 \
        numcod=-1 pocod=-1 m=1 sc=-1 d0=-1 d1=-1 nsig_dnoise=0 rthu=-1 \
        cthu=-1 plorient=1 lle_pcrxn=0 lle_pcrxs=0
    N3 (input2 VINN tail VSS) lvtnfet w=160n l=80n as=12.16f ad=12.16f \
        nf=(1)*(1) sa=(76n)+(0) sb=(76n)+(0) sd=96n ptwell=0 par=1 p_vta=0 \
        sca=-1 scb=-1 scc=-1 u0_mult=1 pre_layout_local=-1 p_la=0 lpccnr=0 \
        covpccnr=0 ngcon=1 wrxcnr=0 nsig_delvto_uo1=0 nsig_delvto_uo2=0 \
        swshe=0 swrg=1 swrsub=-1 swacc=-1 mismatch=1 numcos=-1 pocos=-1 \
        numcod=-1 pocod=-1 m=1 sc=-1 d0=-1 d1=-1 nsig_dnoise=0 rthu=-1 \
        cthu=-1 plorient=1 lle_pcrxn=0 lle_pcrxs=0
    N2 (net8 CLK input1 VSS) lvtnfet w=80n l=30n as=6.08f ad=6.08f \
        nf=(1)*(1) sa=(76n)+(0) sb=(76n)+(0) sd=96n ptwell=0 par=1 p_vta=0 \
        sca=-1 scb=-1 scc=-1 u0_mult=1 pre_layout_local=-1 p_la=0 lpccnr=0 \
        covpccnr=0 ngcon=1 wrxcnr=0 nsig_delvto_uo1=0 nsig_delvto_uo2=0 \
        swshe=0 swrg=1 swrsub=-1 swacc=-1 mismatch=1 numcos=-1 pocos=-1 \
        numcod=-1 pocod=-1 m=1 sc=-1 d0=-1 d1=-1 nsig_dnoise=0 rthu=-1 \
        cthu=-1 plorient=1 lle_pcrxn=0 lle_pcrxs=0
    N0 (input1 VINP tail VSS) lvtnfet w=160n l=80n as=12.16f ad=12.16f \
        nf=(1)*(1) sa=(76n)+(0) sb=(76n)+(0) sd=96n ptwell=0 par=1 p_vta=0 \
        sca=-1 scb=-1 scc=-1 u0_mult=1 pre_layout_local=-1 p_la=0 lpccnr=0 \
        covpccnr=0 ngcon=1 wrxcnr=0 nsig_delvto_uo1=0 nsig_delvto_uo2=0 \
        swshe=0 swrg=1 swrsub=-1 swacc=-1 mismatch=1 numcos=-1 pocos=-1 \
        numcod=-1 pocod=-1 m=1 sc=-1 d0=-1 d1=-1 nsig_dnoise=0 rthu=-1 \
        cthu=-1 plorient=1 lle_pcrxn=0 lle_pcrxs=0
    N1 (tail CLK VSS VSS) lvtnfet w=80n l=30n as=6.08f ad=6.08f nf=(1)*(1) \
        sa=(76n)+(0) sb=(76n)+(0) sd=96n ptwell=0 par=1 p_vta=0 sca=-1 \
        scb=-1 scc=-1 u0_mult=1 pre_layout_local=-1 p_la=0 lpccnr=0 \
        covpccnr=0 ngcon=1 wrxcnr=0 nsig_delvto_uo1=0 nsig_delvto_uo2=0 \
        swshe=0 swrg=1 swrsub=-1 swacc=-1 mismatch=1 numcos=-1 pocos=-1 \
        numcod=-1 pocod=-1 m=1 sc=-1 d0=-1 d1=-1 nsig_dnoise=0 rthu=-1 \
        cthu=-1 plorient=1 lle_pcrxn=0 lle_pcrxs=0
    P6 (outp CLK VDD VDD) lvtpfet w=80n l=30n as=6.08f ad=6.08f nf=(1)*(1) \
        sa=(76n)+(0) sb=(76n)+(0) sd=96n ptwell=0 par=1 p_vta=0 sca=-1 \
        scb=-1 scc=-1 u0_mult=1 pre_layout_local=-1 p_la=0 lpccnr=0 \
        covpccnr=0 ngcon=1 wrxcnr=0 nsig_delvto_uo1=0 nsig_delvto_uo2=0 \
        swshe=0 swrg=1 swrsub=-1 swacc=-1 mismatch=1 numcos=-1 pocos=-1 \
        numcod=-1 pocod=-1 m=1 sc=-1 d0=-1 d1=-1 nsig_dnoise=0 rthu=-1 \
        cthu=-1 plorient=1 lle_pcrxn=0 lle_pcrxs=0
    P5 (net9 CLK VDD VDD) lvtpfet w=80n l=30n as=6.08f ad=6.08f nf=(1)*(1) \
        sa=(76n)+(0) sb=(76n)+(0) sd=96n ptwell=0 par=1 p_vta=0 sca=-1 \
        scb=-1 scc=-1 u0_mult=1 pre_layout_local=-1 p_la=0 lpccnr=0 \
        covpccnr=0 ngcon=1 wrxcnr=0 nsig_delvto_uo1=0 nsig_delvto_uo2=0 \
        swshe=0 swrg=1 swrsub=-1 swacc=-1 mismatch=1 numcos=-1 pocos=-1 \
        numcod=-1 pocod=-1 m=1 sc=-1 d0=-1 d1=-1 nsig_dnoise=0 rthu=-1 \
        cthu=-1 plorient=1 lle_pcrxn=0 lle_pcrxs=0
    P4 (outn CLK VDD VDD) lvtpfet w=80n l=30n as=6.08f ad=6.08f nf=(1)*(1) \
        sa=(76n)+(0) sb=(76n)+(0) sd=96n ptwell=0 par=1 p_vta=0 sca=-1 \
        scb=-1 scc=-1 u0_mult=1 pre_layout_local=-1 p_la=0 lpccnr=0 \
        covpccnr=0 ngcon=1 wrxcnr=0 nsig_delvto_uo1=0 nsig_delvto_uo2=0 \
        swshe=0 swrg=1 swrsub=-1 swacc=-1 mismatch=1 numcos=-1 pocos=-1 \
        numcod=-1 pocod=-1 m=1 sc=-1 d0=-1 d1=-1 nsig_dnoise=0 rthu=-1 \
        cthu=-1 plorient=1 lle_pcrxn=0 lle_pcrxs=0
    P1 (net8 CLK VDD VDD) lvtpfet w=80n l=30n as=6.08f ad=6.08f nf=(1)*(1) \
        sa=(76n)+(0) sb=(76n)+(0) sd=96n ptwell=0 par=1 p_vta=0 sca=-1 \
        scb=-1 scc=-1 u0_mult=1 pre_layout_local=-1 p_la=0 lpccnr=0 \
        covpccnr=0 ngcon=1 wrxcnr=0 nsig_delvto_uo1=0 nsig_delvto_uo2=0 \
        swshe=0 swrg=1 swrsub=-1 swacc=-1 mismatch=1 numcos=-1 pocos=-1 \
        numcod=-1 pocod=-1 m=1 sc=-1 d0=-1 d1=-1 nsig_dnoise=0 rthu=-1 \
        cthu=-1 plorient=1 lle_pcrxn=0 lle_pcrxs=0
    P0 (outp outn VDD VDD) lvtpfet w=320n l=80n as=24.32f ad=24.32f \
        nf=(1)*(1) sa=(76n)+(0) sb=(76n)+(0) sd=96n ptwell=0 par=1 p_vta=0 \
        sca=-1 scb=-1 scc=-1 u0_mult=1 pre_layout_local=-1 p_la=0 lpccnr=0 \
        covpccnr=0 ngcon=1 wrxcnr=0 nsig_delvto_uo1=0 nsig_delvto_uo2=0 \
        swshe=0 swrg=1 swrsub=-1 swacc=-1 mismatch=1 numcos=-1 pocos=-1 \
        numcod=-1 pocod=-1 m=1 sc=-1 d0=-1 d1=-1 nsig_dnoise=0 rthu=-1 \
        cthu=-1 plorient=1 lle_pcrxn=0 lle_pcrxs=0
    P2 (outn outp VDD VDD) lvtpfet w=320n l=80n as=24.32f ad=24.32f \
        nf=(1)*(1) sa=(76n)+(0) sb=(76n)+(0) sd=96n ptwell=0 par=1 p_vta=0 \
        sca=-1 scb=-1 scc=-1 u0_mult=1 pre_layout_local=-1 p_la=0 lpccnr=0 \
        covpccnr=0 ngcon=1 wrxcnr=0 nsig_delvto_uo1=0 nsig_delvto_uo2=0 \
        swshe=0 swrg=1 swrsub=-1 swacc=-1 mismatch=1 numcos=-1 pocos=-1 \
        numcod=-1 pocod=-1 m=1 sc=-1 d0=-1 d1=-1 nsig_dnoise=0 rthu=-1 \
        cthu=-1 plorient=1 lle_pcrxn=0 lle_pcrxs=0
    I3 (nn2 OUTB VSS VSS VDD VDD) INV
    I2 (nn1 OUT VSS VSS VDD VDD) INV
    I0 (outp net6 VSS VSS VDD VDD) INV
    I15 (outn net4 VSS VSS VDD VDD) INV
    I1 (nn1 net6 nn2 VSS VSS VDD VDD) NOR2
    I10 (nn2 net4 nn1 VSS VSS VDD VDD) NOR2
ends StrongARM
// End of subcircuit definition.

// Library name: 0_BARAM
// Cell name: TG
// View name: schematic
subckt TG ON ONB VDD VSS X Y
    N0 (Y ON X VDD) lvtnfet w=2.4u l=30.00n as=119.68f ad=115.2f \
        nf=(30)*(1) sa=(76n)+(0) sb=(76n)+(0) sd=96n ptwell=0 par=1 \
        p_vta=0 sca=-1 scb=-1 scc=-1 u0_mult=1 pre_layout_local=-1 p_la=0 \
        lpccnr=0 covpccnr=0 ngcon=1 wrxcnr=0 nsig_delvto_uo1=0 \
        nsig_delvto_uo2=0 swshe=0 swrg=1 swrsub=-1 swacc=-1 mismatch=1 \
        numcos=-1 pocos=-1 numcod=-1 pocod=-1 m=1 sc=-1 d0=-1 d1=-1 \
        nsig_dnoise=0 rthu=-1 cthu=-1 plorient=1 lle_pcrxn=0 lle_pcrxs=0
    P0 (Y ONB X VSS) lvtpfet w=3.6u l=30.00n as=175.04f ad=175.04f \
        nf=(45)*(1) sa=(76n)+(0) sb=(76n)+(0) sd=96n ptwell=0 par=1 \
        p_vta=0 sca=-1 scb=-1 scc=-1 u0_mult=1 pre_layout_local=-1 p_la=0 \
        lpccnr=0 covpccnr=0 ngcon=1 wrxcnr=0 nsig_delvto_uo1=0 \
        nsig_delvto_uo2=0 swshe=0 swrg=1 swrsub=-1 swacc=-1 mismatch=1 \
        numcos=-1 pocos=-1 numcod=-1 pocod=-1 m=1 sc=-1 d0=-1 d1=-1 \
        nsig_dnoise=0 rthu=-1 cthu=-1 plorient=1 lle_pcrxn=0 lle_pcrxs=0
ends TG
// End of subcircuit definition.

// Library name: 0_BARAM
// Cell name: CDAC_12b
// View name: schematic
subckt CDAC_12b IN\<11\> IN\<10\> IN\<9\> IN\<8\> IN\<7\> IN\<6\> IN\<5\> \
        IN\<4\> IN\<3\> IN\<2\> IN\<1\> IN\<0\> VDD VOUT VSS VX
C2 (OUT\<2\> VX VSS VSS) cmom_6U1x_2U2x_2T8x_LB_sh c=4.436e-15 \
        nf_dirx=10.0 nf_diry=10.0 mtlfrbot=2 mtlfrtop=6 mtlconbot=2 \
        mtlcontop=5 spacefinger_mx=1e-07 wfinger_mx=1e-07 mismatch=1 \
        mult=4 pre_layout_local=-1 fr_big_finger=0
C13 (VSS VX VSS VSS) cmom_6U1x_2U2x_2T8x_LB_sh c=4.436e-15 nf_dirx=10.0 \
        nf_diry=10.0 mtlfrbot=2 mtlfrtop=6 mtlconbot=2 mtlcontop=5 \
        spacefinger_mx=1e-07 wfinger_mx=1e-07 mismatch=1 mult=143 \
        pre_layout_local=-1 fr_big_finger=0
C12 (VOUT VX VSS VSS) cmom_6U1x_2U2x_2T8x_LB_sh c=4.436e-15 nf_dirx=10.0 \
        nf_diry=10.0 mtlfrbot=2 mtlfrtop=6 mtlconbot=2 mtlcontop=5 \
        spacefinger_mx=1e-07 wfinger_mx=1e-07 mismatch=1 mult=6 \
        pre_layout_local=-1 fr_big_finger=0
C11 (OUT\<10\> VOUT VSS VSS) cmom_6U1x_2U2x_2T8x_LB_sh c=4.436e-15 \
        nf_dirx=10.0 nf_diry=10.0 mtlfrbot=2 mtlfrtop=6 mtlconbot=2 \
        mtlcontop=5 spacefinger_mx=1e-07 wfinger_mx=1e-07 mismatch=1 \
        mult=32 pre_layout_local=-1 fr_big_finger=0
C10 (OUT\<11\> VOUT VSS VSS) cmom_6U1x_2U2x_2T8x_LB_sh c=4.436e-15 \
        nf_dirx=10.0 nf_diry=10.0 mtlfrbot=2 mtlfrtop=6 mtlconbot=2 \
        mtlcontop=5 spacefinger_mx=1e-07 wfinger_mx=1e-07 mismatch=1 \
        mult=64 pre_layout_local=-1 fr_big_finger=0
C9 (OUT\<9\> VOUT VSS VSS) cmom_6U1x_2U2x_2T8x_LB_sh c=4.436e-15 \
        nf_dirx=10.0 nf_diry=10.0 mtlfrbot=2 mtlfrtop=6 mtlconbot=2 \
        mtlcontop=5 spacefinger_mx=1e-07 wfinger_mx=1e-07 mismatch=1 \
        mult=16 pre_layout_local=-1 fr_big_finger=0
C8 (OUT\<8\> VOUT VSS VSS) cmom_6U1x_2U2x_2T8x_LB_sh c=4.436e-15 \
        nf_dirx=10.0 nf_diry=10.0 mtlfrbot=2 mtlfrtop=6 mtlconbot=2 \
        mtlcontop=5 spacefinger_mx=1e-07 wfinger_mx=1e-07 mismatch=1 \
        mult=8 pre_layout_local=-1 fr_big_finger=0
C7 (OUT\<4\> VX VSS VSS) cmom_6U1x_2U2x_2T8x_LB_sh c=4.436e-15 \
        nf_dirx=10.0 nf_diry=10.0 mtlfrbot=2 mtlfrtop=6 mtlconbot=2 \
        mtlcontop=5 spacefinger_mx=1e-07 wfinger_mx=1e-07 mismatch=1 \
        mult=16 pre_layout_local=-1 fr_big_finger=0
C6 (OUT\<5\> VOUT VSS VSS) cmom_6U1x_2U2x_2T8x_LB_sh c=4.436e-15 \
        nf_dirx=10.0 nf_diry=10.0 mtlfrbot=2 mtlfrtop=6 mtlconbot=2 \
        mtlcontop=5 spacefinger_mx=1e-07 wfinger_mx=1e-07 mismatch=1 \
        mult=1 pre_layout_local=-1 fr_big_finger=0
C5 (OUT\<7\> VOUT VSS VSS) cmom_6U1x_2U2x_2T8x_LB_sh c=4.436e-15 \
        nf_dirx=10.0 nf_diry=10.0 mtlfrbot=2 mtlfrtop=6 mtlconbot=2 \
        mtlcontop=5 spacefinger_mx=1e-07 wfinger_mx=1e-07 mismatch=1 \
        mult=4 pre_layout_local=-1 fr_big_finger=0
C4 (OUT\<6\> VOUT VSS VSS) cmom_6U1x_2U2x_2T8x_LB_sh c=4.436e-15 \
        nf_dirx=10.0 nf_diry=10.0 mtlfrbot=2 mtlfrtop=6 mtlconbot=2 \
        mtlcontop=5 spacefinger_mx=1e-07 wfinger_mx=1e-07 mismatch=1 \
        mult=2 pre_layout_local=-1 fr_big_finger=0
C3 (OUT\<3\> VX VSS VSS) cmom_6U1x_2U2x_2T8x_LB_sh c=4.436e-15 \
        nf_dirx=10.0 nf_diry=10.0 mtlfrbot=2 mtlfrtop=6 mtlconbot=2 \
        mtlcontop=5 spacefinger_mx=1e-07 wfinger_mx=1e-07 mismatch=1 \
        mult=8 pre_layout_local=-1 fr_big_finger=0
C1 (OUT\<1\> VX VSS VSS) cmom_6U1x_2U2x_2T8x_LB_sh c=4.436e-15 \
        nf_dirx=10.0 nf_diry=10.0 mtlfrbot=2 mtlfrtop=6 mtlconbot=2 \
        mtlcontop=5 spacefinger_mx=1e-07 wfinger_mx=1e-07 mismatch=1 \
        mult=2 pre_layout_local=-1 fr_big_finger=0
C0 (OUT\<0\> VX VSS VSS) cmom_6U1x_2U2x_2T8x_LB_sh c=4.436e-15 \
        nf_dirx=10.0 nf_diry=10.0 mtlfrbot=2 mtlfrtop=6 mtlconbot=2 \
        mtlcontop=5 spacefinger_mx=1e-07 wfinger_mx=1e-07 mismatch=1 \
        mult=1 pre_layout_local=-1 fr_big_finger=0
    I0\<4\> (IN\<4\> OUT\<4\> VSS VSS VDD VDD) INV
    I0\<3\> (IN\<3\> OUT\<3\> VSS VSS VDD VDD) INV
    I0\<2\> (IN\<2\> OUT\<2\> VSS VSS VDD VDD) INV
    I0\<1\> (IN\<1\> OUT\<1\> VSS VSS VDD VDD) INV
    I0\<0\> (IN\<0\> OUT\<0\> VSS VSS VDD VDD) INV
    I1\<11\> (IN\<11\> OUT\<11\> VSS VSS VDD VDD) INV
    I1\<10\> (IN\<10\> OUT\<10\> VSS VSS VDD VDD) INV
    I1\<9\> (IN\<9\> OUT\<9\> VSS VSS VDD VDD) INV
    I1\<8\> (IN\<8\> OUT\<8\> VSS VSS VDD VDD) INV
    I1\<7\> (IN\<7\> OUT\<7\> VSS VSS VDD VDD) INV
    I1\<6\> (IN\<6\> OUT\<6\> VSS VSS VDD VDD) INV
    I1\<5\> (IN\<5\> OUT\<5\> VSS VSS VDD VDD) INV
ends CDAC_12b
// End of subcircuit definition.

// Library name: 0_BARAM
// Cell name: DFFRPQ
// View name: schematic
subckt DFFRPQ net82 net86 net107 net102 net22 net19 net74 net66
    M_I33_MXNOE (net63 net68 net65 net19) nfet w=1E-07 l=3E-08 nf=(1)*(1) \
        sa=(0.076u)+(0u) sb=(0.076u)+(0u) sd=96n ptwell=0 par=1 p_vta=0 \
        sca=-1 scb=-1 scc=-1 u0_mult=1 pre_layout_local=-1 p_la=0 lpccnr=0 \
        covpccnr=0 ngcon=1 wrxcnr=0 nsig_delvto_uo1=0 nsig_delvto_uo2=0 \
        swshe=0 swrg=1 swrsub=-1 swacc=-1 mismatch=1 numcos=-1 pocos=-1 \
        numcod=-1 pocod=-1 m=1 sc=-1 d0=-1 d1=-1 nsig_dnoise=0 rthu=-1 \
        cthu=-1 plorient=1 lle_pcrxn=0 lle_pcrxs=0
    M_I0_MXNA2 (net67 net65 net22 net19) nfet w=1.8E-07 l=3E-08 nf=(1)*(1) \
        sa=(0.076u)+(0u) sb=(0.076u)+(0u) sd=96n ptwell=0 par=1 p_vta=0 \
        sca=-1 scb=-1 scc=-1 u0_mult=1 pre_layout_local=-1 p_la=0 lpccnr=0 \
        covpccnr=0 ngcon=1 wrxcnr=0 nsig_delvto_uo1=0 nsig_delvto_uo2=0 \
        swshe=0 swrg=1 swrsub=-1 swacc=-1 mismatch=1 numcos=-1 pocos=-1 \
        numcod=-1 pocod=-1 m=1 sc=-1 d0=-1 d1=-1 nsig_dnoise=0 rthu=-1 \
        cthu=-1 plorient=1 lle_pcrxn=0 lle_pcrxs=0
    M_I0_MXNA1 (net67 net102 net22 net19) nfet w=1.8E-07 l=3E-08 \
        nf=(1)*(1) sa=(0.076u)+(0u) sb=(0.076u)+(0u) sd=96n ptwell=0 par=1 \
        p_vta=0 sca=-1 scb=-1 scc=-1 u0_mult=1 pre_layout_local=-1 p_la=0 \
        lpccnr=0 covpccnr=0 ngcon=1 wrxcnr=0 nsig_delvto_uo1=0 \
        nsig_delvto_uo2=0 swshe=0 swrg=1 swrsub=-1 swacc=-1 mismatch=1 \
        numcos=-1 pocos=-1 numcod=-1 pocod=-1 m=1 sc=-1 d0=-1 d1=-1 \
        nsig_dnoise=0 rthu=-1 cthu=-1 plorient=1 lle_pcrxn=0 lle_pcrxs=0
    M_I20_MXNOE (net67 net64 net69 net19) nfet w=1.4E-07 l=3E-08 \
        nf=(1)*(1) sa=(0.076u)+(0u) sb=(0.076u)+(0u) sd=96n ptwell=0 par=1 \
        p_vta=0 sca=-1 scb=-1 scc=-1 u0_mult=1 pre_layout_local=-1 p_la=0 \
        lpccnr=0 covpccnr=0 ngcon=1 wrxcnr=0 nsig_delvto_uo1=0 \
        nsig_delvto_uo2=0 swshe=0 swrg=1 swrsub=-1 swacc=-1 mismatch=1 \
        numcos=-1 pocos=-1 numcod=-1 pocod=-1 m=1 sc=-1 d0=-1 d1=-1 \
        nsig_dnoise=0 rthu=-1 cthu=-1 plorient=1 lle_pcrxn=0 lle_pcrxs=0
    M_I23_MXNA1 (net64 net68 net22 net19) nfet w=1E-07 l=3E-08 nf=(1)*(1) \
        sa=(0.076u)+(0u) sb=(0.076u)+(0u) sd=96n ptwell=0 par=1 p_vta=0 \
        sca=-1 scb=-1 scc=-1 u0_mult=1 pre_layout_local=-1 p_la=0 lpccnr=0 \
        covpccnr=0 ngcon=1 wrxcnr=0 nsig_delvto_uo1=0 nsig_delvto_uo2=0 \
        swshe=0 swrg=1 swrsub=-1 swacc=-1 mismatch=1 numcos=-1 pocos=-1 \
        numcod=-1 pocod=-1 m=1 sc=-1 d0=-1 d1=-1 nsig_dnoise=0 rthu=-1 \
        cthu=-1 plorient=1 lle_pcrxn=0 lle_pcrxs=0
    M_MXN1 (net22 net102 net69 net19) nfet w=8E-08 l=3E-08 nf=(1)*(1) \
        sa=(0.076u)+(0u) sb=(0.076u)+(0u) sd=96n ptwell=0 par=1 p_vta=0 \
        sca=-1 scb=-1 scc=-1 u0_mult=1 pre_layout_local=-1 p_la=0 lpccnr=0 \
        covpccnr=0 ngcon=1 wrxcnr=0 nsig_delvto_uo1=0 nsig_delvto_uo2=0 \
        swshe=0 swrg=1 swrsub=-1 swacc=-1 mismatch=1 numcos=-1 pocos=-1 \
        numcod=-1 pocod=-1 m=1 sc=-1 d0=-1 d1=-1 nsig_dnoise=0 rthu=-1 \
        cthu=-1 plorient=1 lle_pcrxn=0 lle_pcrxs=0
    M_I28_MXNA1 (net22 net69 net76 net19) nfet w=1.4E-07 l=3E-08 \
        nf=(1)*(1) sa=(0.076u)+(0u) sb=(0.076u)+(0u) sd=96n ptwell=0 par=1 \
        p_vta=0 sca=-1 scb=-1 scc=-1 u0_mult=1 pre_layout_local=-1 p_la=0 \
        lpccnr=0 covpccnr=0 ngcon=1 wrxcnr=0 nsig_delvto_uo1=0 \
        nsig_delvto_uo2=0 swshe=0 swrg=1 swrsub=-1 swacc=-1 mismatch=1 \
        numcos=-1 pocos=-1 numcod=-1 pocod=-1 m=1 sc=-1 d0=-1 d1=-1 \
        nsig_dnoise=0 rthu=-1 cthu=-1 plorient=1 lle_pcrxn=0 lle_pcrxs=0
    M_I22_MXNA1 (net22 net82 net68 net19) nfet w=1E-07 l=3E-08 nf=(1)*(1) \
        sa=(0.076u)+(0u) sb=(0.076u)+(0u) sd=96n ptwell=0 par=1 p_vta=0 \
        sca=-1 scb=-1 scc=-1 u0_mult=1 pre_layout_local=-1 p_la=0 lpccnr=0 \
        covpccnr=0 ngcon=1 wrxcnr=0 nsig_delvto_uo1=0 nsig_delvto_uo2=0 \
        swshe=0 swrg=1 swrsub=-1 swacc=-1 mismatch=1 numcos=-1 pocos=-1 \
        numcod=-1 pocod=-1 m=1 sc=-1 d0=-1 d1=-1 nsig_dnoise=0 rthu=-1 \
        cthu=-1 plorient=1 lle_pcrxn=0 lle_pcrxs=0
    M_I78_MXNA1 (net22 net86 net63 net19) nfet w=1.2E-07 l=3E-08 \
        nf=(1)*(1) sa=(0.076u)+(0u) sb=(0.076u)+(0u) sd=96n ptwell=0 par=1 \
        p_vta=0 sca=-1 scb=-1 scc=-1 u0_mult=1 pre_layout_local=-1 p_la=0 \
        lpccnr=0 covpccnr=0 ngcon=1 wrxcnr=0 nsig_delvto_uo1=0 \
        nsig_delvto_uo2=0 swshe=0 swrg=1 swrsub=-1 swacc=-1 mismatch=1 \
        numcos=-1 pocos=-1 numcod=-1 pocod=-1 m=1 sc=-1 d0=-1 d1=-1 \
        nsig_dnoise=0 rthu=-1 cthu=-1 plorient=1 lle_pcrxn=0 lle_pcrxs=0
    M_I31_MXNOE (net53 net64 net65 net19) nfet w=8E-08 l=3E-08 nf=(1)*(1) \
        sa=(0.076u)+(0u) sb=(0.076u)+(0u) sd=96n ptwell=0 par=1 p_vta=0 \
        sca=-1 scb=-1 scc=-1 u0_mult=1 pre_layout_local=-1 p_la=0 lpccnr=0 \
        covpccnr=0 ngcon=1 wrxcnr=0 nsig_delvto_uo1=0 nsig_delvto_uo2=0 \
        swshe=0 swrg=1 swrsub=-1 swacc=-1 mismatch=1 numcos=-1 pocos=-1 \
        numcod=-1 pocod=-1 m=1 sc=-1 d0=-1 d1=-1 nsig_dnoise=0 rthu=-1 \
        cthu=-1 plorient=1 lle_pcrxn=0 lle_pcrxs=0
    M_I31_MXNA1 (net53 net67 net22 net19) nfet w=8E-08 l=3E-08 nf=(1)*(1) \
        sa=(0.076u)+(0u) sb=(0.076u)+(0u) sd=96n ptwell=0 par=1 p_vta=0 \
        sca=-1 scb=-1 scc=-1 u0_mult=1 pre_layout_local=-1 p_la=0 lpccnr=0 \
        covpccnr=0 ngcon=1 wrxcnr=0 nsig_delvto_uo1=0 nsig_delvto_uo2=0 \
        swshe=0 swrg=1 swrsub=-1 swacc=-1 mismatch=1 numcos=-1 pocos=-1 \
        numcod=-1 pocod=-1 m=1 sc=-1 d0=-1 d1=-1 nsig_dnoise=0 rthu=-1 \
        cthu=-1 plorient=1 lle_pcrxn=0 lle_pcrxs=0
    M_MXN4 (net61 net68 net69 net19) nfet w=8E-08 l=3E-08 nf=(1)*(1) \
        sa=(0.076u)+(0u) sb=(0.076u)+(0u) sd=96n ptwell=0 par=1 p_vta=0 \
        sca=-1 scb=-1 scc=-1 u0_mult=1 pre_layout_local=-1 p_la=0 lpccnr=0 \
        covpccnr=0 ngcon=1 wrxcnr=0 nsig_delvto_uo1=0 nsig_delvto_uo2=0 \
        swshe=0 swrg=1 swrsub=-1 swacc=-1 mismatch=1 numcos=-1 pocos=-1 \
        numcod=-1 pocod=-1 m=1 sc=-1 d0=-1 d1=-1 nsig_dnoise=0 rthu=-1 \
        cthu=-1 plorient=1 lle_pcrxn=0 lle_pcrxs=0
    M_MXN0 (net61 net76 net22 net19) nfet w=8E-08 l=3E-08 nf=(1)*(1) \
        sa=(0.076u)+(0u) sb=(0.076u)+(0u) sd=96n ptwell=0 par=1 p_vta=0 \
        sca=-1 scb=-1 scc=-1 u0_mult=1 pre_layout_local=-1 p_la=0 lpccnr=0 \
        covpccnr=0 ngcon=1 wrxcnr=0 nsig_delvto_uo1=0 nsig_delvto_uo2=0 \
        swshe=0 swrg=1 swrsub=-1 swacc=-1 mismatch=1 numcos=-1 pocos=-1 \
        numcod=-1 pocod=-1 m=1 sc=-1 d0=-1 d1=-1 nsig_dnoise=0 rthu=-1 \
        cthu=-1 plorient=1 lle_pcrxn=0 lle_pcrxs=0
    M_I8_MXNA1 (net22 net76 net107 net19) nfet w=1.58E-07 l=3E-08 \
        nf=(1)*(1) sa=(0.076u)+(0u) sb=(0.076u)+(0u) sd=96n ptwell=0 par=1 \
        p_vta=0 sca=-1 scb=-1 scc=-1 u0_mult=1 pre_layout_local=-1 p_la=0 \
        lpccnr=0 covpccnr=0 ngcon=1 wrxcnr=0 nsig_delvto_uo1=0 \
        nsig_delvto_uo2=0 swshe=0 swrg=1 swrsub=-1 swacc=-1 mismatch=1 \
        numcos=-1 pocos=-1 numcod=-1 pocod=-1 m=1 sc=-1 d0=-1 d1=-1 \
        nsig_dnoise=0 rthu=-1 cthu=-1 plorient=1 lle_pcrxn=0 lle_pcrxs=0
    M_I33_MXPOEN (net63 net64 net65 net66) pfet w=1E-07 l=3E-08 nf=(1)*(1) \
        sa=(0.076u)+(0u) sb=(0.076u)+(0u) sd=96n ptwell=0 par=1 p_vta=0 \
        sca=-1 scb=-1 scc=-1 u0_mult=1 pre_layout_local=-1 p_la=0 lpccnr=0 \
        covpccnr=0 ngcon=1 wrxcnr=0 nsig_delvto_uo1=0 nsig_delvto_uo2=0 \
        swshe=0 swrg=1 swrsub=-1 swacc=-1 mismatch=1 numcos=-1 pocos=-1 \
        numcod=-1 pocod=-1 m=1 sc=-1 d0=-1 d1=-1 nsig_dnoise=0 rthu=-1 \
        cthu=-1 plorient=1 lle_pcrxn=0 lle_pcrxs=0
    M_I20_MXPOEN (net67 net68 net69 net66) pfet w=1.4E-07 l=3E-08 \
        nf=(1)*(1) sa=(0.076u)+(0u) sb=(0.076u)+(0u) sd=96n ptwell=0 par=1 \
        p_vta=0 sca=-1 scb=-1 scc=-1 u0_mult=1 pre_layout_local=-1 p_la=0 \
        lpccnr=0 covpccnr=0 ngcon=1 wrxcnr=0 nsig_delvto_uo1=0 \
        nsig_delvto_uo2=0 swshe=0 swrg=1 swrsub=-1 swacc=-1 mismatch=1 \
        numcos=-1 pocos=-1 numcod=-1 pocod=-1 m=1 sc=-1 d0=-1 d1=-1 \
        nsig_dnoise=0 rthu=-1 cthu=-1 plorient=1 lle_pcrxn=0 lle_pcrxs=0
    M_I23_MXPA1 (net64 net68 net74 net66) pfet w=1.8E-07 l=3E-08 \
        nf=(1)*(1) sa=(0.076u)+(0u) sb=(0.076u)+(0u) sd=96n ptwell=0 par=1 \
        p_vta=0 sca=-1 scb=-1 scc=-1 u0_mult=1 pre_layout_local=-1 p_la=0 \
        lpccnr=0 covpccnr=0 ngcon=1 wrxcnr=0 nsig_delvto_uo1=0 \
        nsig_delvto_uo2=0 swshe=0 swrg=1 swrsub=-1 swacc=-1 mismatch=1 \
        numcos=-1 pocos=-1 numcod=-1 pocod=-1 m=1 sc=-1 d0=-1 d1=-1 \
        nsig_dnoise=0 rthu=-1 cthu=-1 plorient=1 lle_pcrxn=0 lle_pcrxs=0
    M_I28_MXPA1 (net76 net69 net74 net66) pfet w=2.7E-07 l=3E-08 \
        nf=(1)*(1) sa=(0.076u)+(0u) sb=(0.076u)+(0u) sd=96n ptwell=0 par=1 \
        p_vta=0 sca=-1 scb=-1 scc=-1 u0_mult=1 pre_layout_local=-1 p_la=0 \
        lpccnr=0 covpccnr=0 ngcon=1 wrxcnr=0 nsig_delvto_uo1=0 \
        nsig_delvto_uo2=0 swshe=0 swrg=1 swrsub=-1 swacc=-1 mismatch=1 \
        numcos=-1 pocos=-1 numcod=-1 pocod=-1 m=1 sc=-1 d0=-1 d1=-1 \
        nsig_dnoise=0 rthu=-1 cthu=-1 plorient=1 lle_pcrxn=0 lle_pcrxs=0
    M_I22_MXPA1 (net68 net82 net74 net66) pfet w=1E-07 l=3E-08 nf=(1)*(1) \
        sa=(0.076u)+(0u) sb=(0.076u)+(0u) sd=96n ptwell=0 par=1 p_vta=0 \
        sca=-1 scb=-1 scc=-1 u0_mult=1 pre_layout_local=-1 p_la=0 lpccnr=0 \
        covpccnr=0 ngcon=1 wrxcnr=0 nsig_delvto_uo1=0 nsig_delvto_uo2=0 \
        swshe=0 swrg=1 swrsub=-1 swacc=-1 mismatch=1 numcos=-1 pocos=-1 \
        numcod=-1 pocod=-1 m=1 sc=-1 d0=-1 d1=-1 nsig_dnoise=0 rthu=-1 \
        cthu=-1 plorient=1 lle_pcrxn=0 lle_pcrxs=0
    M_I78_MXPA1 (net74 net86 net63 net66) pfet w=1E-07 l=3E-08 nf=(1)*(1) \
        sa=(0.076u)+(0u) sb=(0.076u)+(0u) sd=96n ptwell=0 par=1 p_vta=0 \
        sca=-1 scb=-1 scc=-1 u0_mult=1 pre_layout_local=-1 p_la=0 lpccnr=0 \
        covpccnr=0 ngcon=1 wrxcnr=0 nsig_delvto_uo1=0 nsig_delvto_uo2=0 \
        swshe=0 swrg=1 swrsub=-1 swacc=-1 mismatch=1 numcos=-1 pocos=-1 \
        numcod=-1 pocod=-1 m=1 sc=-1 d0=-1 d1=-1 nsig_dnoise=0 rthu=-1 \
        cthu=-1 plorient=1 lle_pcrxn=0 lle_pcrxs=0
    M_I31_MXPOEN (net89 net68 net65 net66) pfet w=8E-08 l=3E-08 nf=(1)*(1) \
        sa=(0.076u)+(0u) sb=(0.076u)+(0u) sd=96n ptwell=0 par=1 p_vta=0 \
        sca=-1 scb=-1 scc=-1 u0_mult=1 pre_layout_local=-1 p_la=0 lpccnr=0 \
        covpccnr=0 ngcon=1 wrxcnr=0 nsig_delvto_uo1=0 nsig_delvto_uo2=0 \
        swshe=0 swrg=1 swrsub=-1 swacc=-1 mismatch=1 numcos=-1 pocos=-1 \
        numcod=-1 pocod=-1 m=1 sc=-1 d0=-1 d1=-1 nsig_dnoise=0 rthu=-1 \
        cthu=-1 plorient=1 lle_pcrxn=0 lle_pcrxs=0
    M_I31_MXPA1 (net89 net67 net74 net66) pfet w=8E-08 l=3E-08 nf=(1)*(1) \
        sa=(0.076u)+(0u) sb=(0.076u)+(0u) sd=96n ptwell=0 par=1 p_vta=0 \
        sca=-1 scb=-1 scc=-1 u0_mult=1 pre_layout_local=-1 p_la=0 lpccnr=0 \
        covpccnr=0 ngcon=1 wrxcnr=0 nsig_delvto_uo1=0 nsig_delvto_uo2=0 \
        swshe=0 swrg=1 swrsub=-1 swacc=-1 mismatch=1 numcos=-1 pocos=-1 \
        numcod=-1 pocod=-1 m=1 sc=-1 d0=-1 d1=-1 nsig_dnoise=0 rthu=-1 \
        cthu=-1 plorient=1 lle_pcrxn=0 lle_pcrxs=0
    M_I0_MXPA2 (net97 net65 net74 net66) pfet w=3.1E-07 l=3E-08 nf=(1)*(1) \
        sa=(0.076u)+(0u) sb=(0.076u)+(0u) sd=96n ptwell=0 par=1 p_vta=0 \
        sca=-1 scb=-1 scc=-1 u0_mult=1 pre_layout_local=-1 p_la=0 lpccnr=0 \
        covpccnr=0 ngcon=1 wrxcnr=0 nsig_delvto_uo1=0 nsig_delvto_uo2=0 \
        swshe=0 swrg=1 swrsub=-1 swacc=-1 mismatch=1 numcos=-1 pocos=-1 \
        numcod=-1 pocod=-1 m=1 sc=-1 d0=-1 d1=-1 nsig_dnoise=0 rthu=-1 \
        cthu=-1 plorient=1 lle_pcrxn=0 lle_pcrxs=0
    M_I0_MXPA1 (net97 net102 net67 net66) pfet w=3.1E-07 l=3E-08 \
        nf=(1)*(1) sa=(0.076u)+(0u) sb=(0.076u)+(0u) sd=96n ptwell=0 par=1 \
        p_vta=0 sca=-1 scb=-1 scc=-1 u0_mult=1 pre_layout_local=-1 p_la=0 \
        lpccnr=0 covpccnr=0 ngcon=1 wrxcnr=0 nsig_delvto_uo1=0 \
        nsig_delvto_uo2=0 swshe=0 swrg=1 swrsub=-1 swacc=-1 mismatch=1 \
        numcos=-1 pocos=-1 numcod=-1 pocod=-1 m=1 sc=-1 d0=-1 d1=-1 \
        nsig_dnoise=0 rthu=-1 cthu=-1 plorient=1 lle_pcrxn=0 lle_pcrxs=0
    M_I8_MXPA1 (net74 net76 net107 net66) pfet w=1.58E-07 l=3E-08 \
        nf=(1)*(1) sa=(0.076u)+(0u) sb=(0.076u)+(0u) sd=96n ptwell=0 par=1 \
        p_vta=0 sca=-1 scb=-1 scc=-1 u0_mult=1 pre_layout_local=-1 p_la=0 \
        lpccnr=0 covpccnr=0 ngcon=1 wrxcnr=0 nsig_delvto_uo1=0 \
        nsig_delvto_uo2=0 swshe=0 swrg=1 swrsub=-1 swacc=-1 mismatch=1 \
        numcos=-1 pocos=-1 numcod=-1 pocod=-1 m=1 sc=-1 d0=-1 d1=-1 \
        nsig_dnoise=0 rthu=-1 cthu=-1 plorient=1 lle_pcrxn=0 lle_pcrxs=0
    M_MXP1 (net109 net64 net69 net66) pfet w=1.2E-07 l=3E-08 nf=(1)*(1) \
        sa=(0.076u)+(0u) sb=(0.076u)+(0u) sd=96n ptwell=0 par=1 p_vta=0 \
        sca=-1 scb=-1 scc=-1 u0_mult=1 pre_layout_local=-1 p_la=0 lpccnr=0 \
        covpccnr=0 ngcon=1 wrxcnr=0 nsig_delvto_uo1=0 nsig_delvto_uo2=0 \
        swshe=0 swrg=1 swrsub=-1 swacc=-1 mismatch=1 numcos=-1 pocos=-1 \
        numcod=-1 pocod=-1 m=1 sc=-1 d0=-1 d1=-1 nsig_dnoise=0 rthu=-1 \
        cthu=-1 plorient=1 lle_pcrxn=0 lle_pcrxs=0
    M_MXP0 (net113 net76 net109 net66) pfet w=1.2E-07 l=3E-08 nf=(1)*(1) \
        sa=(0.076u)+(0u) sb=(0.076u)+(0u) sd=96n ptwell=0 par=1 p_vta=0 \
        sca=-1 scb=-1 scc=-1 u0_mult=1 pre_layout_local=-1 p_la=0 lpccnr=0 \
        covpccnr=0 ngcon=1 wrxcnr=0 nsig_delvto_uo1=0 nsig_delvto_uo2=0 \
        swshe=0 swrg=1 swrsub=-1 swacc=-1 mismatch=1 numcos=-1 pocos=-1 \